/*---------------------------------------------------------------------------*\
| =========                 |                                                 |
| \\      /  F ield         | OpenFOAM: The Open Source CFD Toolbox           |
|  \\    /   O peration     | Version:  v2012                                 |
|   \\  /    A nd           | Website:  www.openfoam.com                      |
|    \\/     M anipulation  |                                                 |
\*---------------------------------------------------------------------------*/
Build  : 79e353b84e-20201222 OPENFOAM=2012
Arch   : "LSB;label=32;scalar=64"
Exec   : simpleFoam -parallel
Date   : Apr 17 2022
Time   : 23:15:00
Host   : DESKTOP-OGTHBU9
PID    : 3184
I/O    : uncollated
Case   : C:/Users/ZEEMAR~1/AppData/Local/Temp/case
nProcs : 4
Hosts  :
(
    (DESKTOP-OGTHBU9 4)
)
Pstream initialized with:
    floatTransfer      : 0
    nProcsSimpleSum    : 0
    commsType          : nonBlocking
    polling iterations : 0
trapFpe: Floating point exception trapping enabled (FOAM_SIGFPE).
fileModificationChecking : Monitoring run-time modified files using timeStampMaster (fileModificationSkew 5, maxFileModificationPolls 20)
allowSystemOperations : Allowing user-supplied system call operations

// * * * * * * * * * * * * * * * * * * * * * * * * * * * * * * * * * * * * * //
Create time

Create mesh for time = 0


SIMPLE: convergence criteria
    field p	 tolerance 0.001
    field U	 tolerance 0.001
    field "(k|epsilon|omega|f|v2|nuTilda)"	 tolerance 0.001

Reading field p

Reading field U

Reading/calculating face flux field phi

Selecting incompressible transport model Newtonian
Selecting turbulence model type RAS
Selecting RAS turbulence model kOmegaSST
Selecting patchDistMethod meshWave
RAS
{
    RASModel        kOmegaSST;
    turbulence      on;
    printCoeffs     on;
    alphaK1         0.85;
    alphaK2         1;
    alphaOmega1     0.5;
    alphaOmega2     0.856;
    gamma1          0.55555556;
    gamma2          0.44;
    beta1           0.075;
    beta2           0.0828;
    betaStar        0.09;
    a1              0.31;
    b1              1;
    c1              10;
    F3              false;
    decayControl    false;
    kInf            0;
    omegaInf        0;
}

No MRF models present

No finite volume options present

Starting time loop

forces forces:
    rho: rhoInf
    Freestream density (rhoInf) set to 1
    Not including porosity effects
    Fields will be written

Time = 1

smoothSolver:  Solving for Ux, Initial residual = 0.016124366, Final residual = 0.00036076686, No Iterations 2
smoothSolver:  Solving for Uy, Initial residual = 0.056029131, Final residual = 0.0010900296, No Iterations 2
smoothSolver:  Solving for Uz, Initial residual = 0.059003777, Final residual = 0.0054201266, No Iterations 1
GAMG:  Solving for p, Initial residual = 0.57585976, Final residual = 0.0034084984, No Iterations 4
GAMG:  Solving for p, Initial residual = 0.027119476, Final residual = 0.00025776536, No Iterations 4
GAMG:  Solving for p, Initial residual = 0.0026413566, Final residual = 2.4218456e-05, No Iterations 5
GAMG:  Solving for p, Initial residual = 0.00044962936, Final residual = 3.8807641e-06, No Iterations 5
GAMG:  Solving for p, Initial residual = 0.00010257349, Final residual = 7.9950675e-07, No Iterations 5
GAMG:  Solving for p, Initial residual = 2.6146904e-05, Final residual = 1.8904804e-07, No Iterations 5
time step continuity errors : sum local = 5.9195467e-08, global = -3.1385045e-10, cumulative = -3.1385045e-10
smoothSolver:  Solving for omega, Initial residual = 1, Final residual = 0.061957787, No Iterations 3
smoothSolver:  Solving for k, Initial residual = 1, Final residual = 0.089939542, No Iterations 2
ExecutionTime = 17.08 s  ClockTime = 17 s

forces forces write:
    Sum of forces
        Total    : (0.070903434 3.1112922 -0.099233772)
        Pressure : (0.070391985 3.1089131 -0.098657939)
        Viscous  : (0.00051144897 0.0023791211 -0.00057583318)
    Sum of moments
        Total    : (-1.9727506 0.095041501 0.43035489)
        Pressure : (-1.9714907 0.094706922 0.42937716)
        Viscous  : (-0.0012599142 0.0003345784 0.00097773053)


Time = 2

smoothSolver:  Solving for Ux, Initial residual = 0.0073714456, Final residual = 0.00012883954, No Iterations 2
smoothSolver:  Solving for Uy, Initial residual = 0.021186536, Final residual = 0.00034752862, No Iterations 2
smoothSolver:  Solving for Uz, Initial residual = 0.029963737, Final residual = 0.0027013411, No Iterations 1
GAMG:  Solving for p, Initial residual = 0.43132427, Final residual = 0.0030344216, No Iterations 4
GAMG:  Solving for p, Initial residual = 0.02111779, Final residual = 0.00020876959, No Iterations 4
GAMG:  Solving for p, Initial residual = 0.0020882088, Final residual = 2.0241005e-05, No Iterations 5
GAMG:  Solving for p, Initial residual = 0.000381369, Final residual = 3.1358145e-06, No Iterations 5
GAMG:  Solving for p, Initial residual = 8.999915e-05, Final residual = 6.4041358e-07, No Iterations 5
GAMG:  Solving for p, Initial residual = 2.4655042e-05, Final residual = 1.6674131e-07, No Iterations 5
time step continuity errors : sum local = 6.1669781e-08, global = 1.3315357e-10, cumulative = -1.8069688e-10
smoothSolver:  Solving for omega, Initial residual = 0.5320116, Final residual = 0.03349036, No Iterations 3
smoothSolver:  Solving for k, Initial residual = 0.21769262, Final residual = 0.01879486, No Iterations 2
ExecutionTime = 26.238 s  ClockTime = 27 s

forces forces write:
    Sum of forces
        Total    : (0.066763255 4.3799963 -0.15957379)
        Pressure : (0.066053942 4.3759679 -0.15870791)
        Viscous  : (0.00070931314 0.0040283863 -0.00086587983)
    Sum of moments
        Total    : (-2.7905559 0.1099705 0.56027115)
        Pressure : (-2.7884218 0.10946706 0.55906508)
        Viscous  : (-0.0021341579 0.00050344226 0.00120607)


Time = 3

smoothSolver:  Solving for Ux, Initial residual = 0.0078240591, Final residual = 0.00016703572, No Iterations 2
smoothSolver:  Solving for Uy, Initial residual = 0.019105225, Final residual = 0.00046610713, No Iterations 2
smoothSolver:  Solving for Uz, Initial residual = 0.022313856, Final residual = 0.00042314932, No Iterations 2
GAMG:  Solving for p, Initial residual = 0.22998044, Final residual = 0.0012068776, No Iterations 4
GAMG:  Solving for p, Initial residual = 0.012216811, Final residual = 0.00010728074, No Iterations 4
GAMG:  Solving for p, Initial residual = 0.0013211749, Final residual = 1.0261167e-05, No Iterations 5
GAMG:  Solving for p, Initial residual = 0.00025313945, Final residual = 1.4581865e-06, No Iterations 5
GAMG:  Solving for p, Initial residual = 6.0429001e-05, Final residual = 5.6640214e-07, No Iterations 4
GAMG:  Solving for p, Initial residual = 1.6901038e-05, Final residual = 9.8985394e-08, No Iterations 5
time step continuity errors : sum local = 2.8877931e-08, global = 9.1752479e-10, cumulative = 7.3682791e-10
smoothSolver:  Solving for omega, Initial residual = 0.39135616, Final residual = 0.025847116, No Iterations 3
smoothSolver:  Solving for k, Initial residual = 0.11646533, Final residual = 0.0056030831, No Iterations 3
ExecutionTime = 35.956 s  ClockTime = 36 s

forces forces write:
    Sum of forces
        Total    : (0.050612059 4.7388522 -0.18502529)
        Pressure : (0.049484106 4.7346258 -0.18422388)
        Viscous  : (0.0011279528 0.0042264759 -0.00080141164)
    Sum of moments
        Total    : (-3.0198036 0.10642749 0.58394951)
        Pressure : (-3.0175799 0.10568864 0.58256845)
        Viscous  : (-0.0022237502 0.00073885259 0.0013810642)


Time = 4

smoothSolver:  Solving for Ux, Initial residual = 0.0086497048, Final residual = 0.00021421771, No Iterations 2
smoothSolver:  Solving for Uy, Initial residual = 0.020816965, Final residual = 0.0006022554, No Iterations 2
smoothSolver:  Solving for Uz, Initial residual = 0.021239518, Final residual = 0.00050223368, No Iterations 2
GAMG:  Solving for p, Initial residual = 0.2265712, Final residual = 0.0012619984, No Iterations 4
GAMG:  Solving for p, Initial residual = 0.019279537, Final residual = 0.00017422199, No Iterations 4
GAMG:  Solving for p, Initial residual = 0.0021678212, Final residual = 1.8088406e-05, No Iterations 5
GAMG:  Solving for p, Initial residual = 0.00039120645, Final residual = 2.9875163e-06, No Iterations 5
GAMG:  Solving for p, Initial residual = 9.2988267e-05, Final residual = 6.3077823e-07, No Iterations 5
GAMG:  Solving for p, Initial residual = 2.3978958e-05, Final residual = 2.2898159e-07, No Iterations 4
time step continuity errors : sum local = 4.7164458e-08, global = 5.6603663e-10, cumulative = 1.3028645e-09
smoothSolver:  Solving for omega, Initial residual = 0.30656515, Final residual = 0.020614075, No Iterations 3
smoothSolver:  Solving for k, Initial residual = 0.07843612, Final residual = 0.0042570904, No Iterations 3
ExecutionTime = 45.427 s  ClockTime = 46 s

forces forces write:
    Sum of forces
        Total    : (0.011392371 4.2083215 -0.17594872)
        Pressure : (0.0099805718 4.2046751 -0.17536576)
        Viscous  : (0.0014117995 0.0036464077 -0.00058296626)
    Sum of moments
        Total    : (-2.6736187 0.079744953 0.49142241)
        Pressure : (-2.6717264 0.078885102 0.48994499)
        Viscous  : (-0.001892285 0.00085985076 0.0014774244)


Time = 5

smoothSolver:  Solving for Ux, Initial residual = 0.0052563325, Final residual = 0.00011866197, No Iterations 2
smoothSolver:  Solving for Uy, Initial residual = 0.01137213, Final residual = 0.00030851851, No Iterations 2
smoothSolver:  Solving for Uz, Initial residual = 0.014833018, Final residual = 0.00034360378, No Iterations 2
GAMG:  Solving for p, Initial residual = 0.25175784, Final residual = 0.0017918261, No Iterations 4
GAMG:  Solving for p, Initial residual = 0.025459947, Final residual = 0.00025238574, No Iterations 4
GAMG:  Solving for p, Initial residual = 0.0028053986, Final residual = 2.4828699e-05, No Iterations 5
GAMG:  Solving for p, Initial residual = 0.00048387568, Final residual = 3.9253141e-06, No Iterations 5
GAMG:  Solving for p, Initial residual = 0.00010620955, Final residual = 8.134755e-07, No Iterations 5
GAMG:  Solving for p, Initial residual = 2.7959715e-05, Final residual = 1.8266934e-07, No Iterations 5
time step continuity errors : sum local = 3.2889496e-08, global = 2.6667358e-10, cumulative = 1.5695381e-09
smoothSolver:  Solving for omega, Initial residual = 0.25005923, Final residual = 0.016971443, No Iterations 3
smoothSolver:  Solving for k, Initial residual = 0.058989297, Final residual = 0.0034107761, No Iterations 3
ExecutionTime = 59.948 s  ClockTime = 60 s

forces forces write:
    Sum of forces
        Total    : (-0.023360137 3.4524892 -0.15313679)
        Pressure : (-0.024999206 3.4495078 -0.15277921)
        Viscous  : (0.0016390688 0.0029813591 -0.00035757955)
    Sum of moments
        Total    : (-2.1829343 0.053056227 0.38027279)
        Pressure : (-2.1814151 0.05209731 0.37875586)
        Viscous  : (-0.0015191743 0.00095891768 0.0015169264)


Time = 6

smoothSolver:  Solving for Ux, Initial residual = 0.0037021287, Final residual = 8.3903162e-05, No Iterations 2
smoothSolver:  Solving for Uy, Initial residual = 0.007874759, Final residual = 0.00019992862, No Iterations 2
smoothSolver:  Solving for Uz, Initial residual = 0.012814455, Final residual = 0.00030530692, No Iterations 2
GAMG:  Solving for p, Initial residual = 0.20722318, Final residual = 0.0012624934, No Iterations 4
GAMG:  Solving for p, Initial residual = 0.018269765, Final residual = 0.00015606291, No Iterations 4
GAMG:  Solving for p, Initial residual = 0.0020949443, Final residual = 1.4919009e-05, No Iterations 5
GAMG:  Solving for p, Initial residual = 0.00037285916, Final residual = 2.2892669e-06, No Iterations 5
GAMG:  Solving for p, Initial residual = 8.7390089e-05, Final residual = 8.3079867e-07, No Iterations 4
GAMG:  Solving for p, Initial residual = 2.3003056e-05, Final residual = 1.7007266e-07, No Iterations 5
time step continuity errors : sum local = 2.9701912e-08, global = -1.0133655e-10, cumulative = 1.4682016e-09
smoothSolver:  Solving for omega, Initial residual = 0.21006996, Final residual = 0.014332455, No Iterations 3
smoothSolver:  Solving for k, Initial residual = 0.047409202, Final residual = 0.0028365685, No Iterations 3
ExecutionTime = 71.447 s  ClockTime = 72 s

forces forces write:
    Sum of forces
        Total    : (-0.020912218 3.082444 -0.13487258)
        Pressure : (-0.02276438 3.0798505 -0.1346727)
        Viscous  : (0.0018521618 0.0025935745 -0.00019987837)
    Sum of moments
        Total    : (-1.9438203 0.050393763 0.34589565)
        Pressure : (-1.9425146 0.049325082 0.34436952)
        Viscous  : (-0.0013057265 0.0010686809 0.0015261352)


Time = 7

smoothSolver:  Solving for Ux, Initial residual = 0.004683395, Final residual = 0.00012710067, No Iterations 2
smoothSolver:  Solving for Uy, Initial residual = 0.011952657, Final residual = 0.00035802749, No Iterations 2
smoothSolver:  Solving for Uz, Initial residual = 0.014723405, Final residual = 0.00039213873, No Iterations 2
GAMG:  Solving for p, Initial residual = 0.19145122, Final residual = 0.00079119698, No Iterations 4
GAMG:  Solving for p, Initial residual = 0.013250639, Final residual = 7.8540339e-05, No Iterations 4
GAMG:  Solving for p, Initial residual = 0.0014105856, Final residual = 8.6822017e-06, No Iterations 5
GAMG:  Solving for p, Initial residual = 0.00024595284, Final residual = 1.4729887e-06, No Iterations 5
GAMG:  Solving for p, Initial residual = 5.4951193e-05, Final residual = 4.8395607e-07, No Iterations 4
GAMG:  Solving for p, Initial residual = 1.4179718e-05, Final residual = 8.6564004e-08, No Iterations 5
time step continuity errors : sum local = 1.6520215e-08, global = -3.0137042e-10, cumulative = 1.1668311e-09
smoothSolver:  Solving for omega, Initial residual = 0.18039973, Final residual = 0.012347404, No Iterations 3
smoothSolver:  Solving for k, Initial residual = 0.039730484, Final residual = 0.0024224747, No Iterations 3
ExecutionTime = 80.886 s  ClockTime = 81 s

forces forces write:
    Sum of forces
        Total    : (0.019476493 3.2385124 -0.12836862)
        Pressure : (0.01742436 3.236013 -0.12824578)
        Viscous  : (0.0020521332 0.0024993762 -0.00012284657)
    Sum of moments
        Total    : (-2.0464548 0.073168641 0.4021939)
        Pressure : (-2.0452001 0.071983205 0.40065516)
        Viscous  : (-0.0012546786 0.0011854355 0.0015387401)


Time = 8

smoothSolver:  Solving for Ux, Initial residual = 0.0037477025, Final residual = 9.6720651e-05, No Iterations 2
smoothSolver:  Solving for Uy, Initial residual = 0.0083284586, Final residual = 0.00024971738, No Iterations 2
smoothSolver:  Solving for Uz, Initial residual = 0.012180506, Final residual = 0.00032409401, No Iterations 2
GAMG:  Solving for p, Initial residual = 0.19319601, Final residual = 0.0012681491, No Iterations 4
GAMG:  Solving for p, Initial residual = 0.014281159, Final residual = 0.000128614, No Iterations 4
GAMG:  Solving for p, Initial residual = 0.0014155856, Final residual = 1.1872682e-05, No Iterations 5
GAMG:  Solving for p, Initial residual = 0.00023174698, Final residual = 1.6954571e-06, No Iterations 5
GAMG:  Solving for p, Initial residual = 5.0479185e-05, Final residual = 3.2486997e-07, No Iterations 5
GAMG:  Solving for p, Initial residual = 1.2243181e-05, Final residual = 1.0862125e-07, No Iterations 4
time step continuity errors : sum local = 2.3734365e-08, global = -2.5287997e-10, cumulative = 9.1395118e-10
smoothSolver:  Solving for omega, Initial residual = 0.15751264, Final residual = 0.010803733, No Iterations 3
smoothSolver:  Solving for k, Initial residual = 0.03425242, Final residual = 0.0021109894, No Iterations 3
ExecutionTime = 90.588 s  ClockTime = 91 s

forces forces write:
    Sum of forces
        Total    : (0.065460302 3.6425317 -0.13131373)
        Pressure : (0.063263397 3.6399468 -0.13121711)
        Viscous  : (0.0021969046 0.0025849491 -9.6624588e-05)
    Sum of moments
        Total    : (-2.3091591 0.10108948 0.48643434)
        Pressure : (-2.307857 0.099815881 0.48485216)
        Viscous  : (-0.0013021282 0.001273596 0.0015821746)


Time = 9

smoothSolver:  Solving for Ux, Initial residual = 0.0025952835, Final residual = 5.8208167e-05, No Iterations 2
smoothSolver:  Solving for Uy, Initial residual = 0.0041087567, Final residual = 0.00011011867, No Iterations 2
smoothSolver:  Solving for Uz, Initial residual = 0.0091461166, Final residual = 0.00023106739, No Iterations 2
GAMG:  Solving for p, Initial residual = 0.15215685, Final residual = 0.0009692532, No Iterations 4
GAMG:  Solving for p, Initial residual = 0.011474156, Final residual = 9.1614525e-05, No Iterations 4
GAMG:  Solving for p, Initial residual = 0.0011446898, Final residual = 8.6380875e-06, No Iterations 5
GAMG:  Solving for p, Initial residual = 0.00019474106, Final residual = 1.1886494e-06, No Iterations 5
GAMG:  Solving for p, Initial residual = 4.1723754e-05, Final residual = 4.0969654e-07, No Iterations 4
GAMG:  Solving for p, Initial residual = 1.0552389e-05, Final residual = 7.404058e-08, No Iterations 5
time step continuity errors : sum local = 1.6148687e-08, global = -5.976861e-11, cumulative = 8.5418257e-10
smoothSolver:  Solving for omega, Initial residual = 0.13933732, Final residual = 0.0095715214, No Iterations 3
smoothSolver:  Solving for k, Initial residual = 0.03013782, Final residual = 0.0018690112, No Iterations 3
ExecutionTime = 100.156 s  ClockTime = 101 s

forces forces write:
    Sum of forces
        Total    : (0.082651306 3.927023 -0.13800096)
        Pressure : (0.080377142 3.9242831 -0.13791833)
        Viscous  : (0.0022741641 0.0027398381 -8.2624803e-05)
    Sum of moments
        Total    : (-2.4929921 0.11265901 0.52537918)
        Pressure : (-2.4916007 0.1113387 0.52371373)
        Viscous  : (-0.0013913446 0.0013203117 0.0016654482)


Time = 10

smoothSolver:  Solving for Ux, Initial residual = 0.0031378385, Final residual = 8.0391771e-05, No Iterations 2
smoothSolver:  Solving for Uy, Initial residual = 0.006370769, Final residual = 0.00019037199, No Iterations 2
smoothSolver:  Solving for Uz, Initial residual = 0.0097068891, Final residual = 0.00025865436, No Iterations 2
GAMG:  Solving for p, Initial residual = 0.12271341, Final residual = 0.00041131002, No Iterations 4
GAMG:  Solving for p, Initial residual = 0.0085353306, Final residual = 7.9090052e-05, No Iterations 3
GAMG:  Solving for p, Initial residual = 0.00090399653, Final residual = 6.5966719e-06, No Iterations 5
GAMG:  Solving for p, Initial residual = 0.00015598384, Final residual = 9.3837181e-07, No Iterations 5
GAMG:  Solving for p, Initial residual = 3.4451267e-05, Final residual = 2.898248e-07, No Iterations 4
GAMG:  Solving for p, Initial residual = 8.7075452e-06, Final residual = 5.0892807e-08, No Iterations 5
time step continuity errors : sum local = 1.0081747e-08, global = 2.0796738e-10, cumulative = 1.0621499e-09
smoothSolver:  Solving for omega, Initial residual = 0.1245774, Final residual = 0.0085674864, No Iterations 3
smoothSolver:  Solving for k, Initial residual = 0.026928828, Final residual = 0.0016762451, No Iterations 3
ExecutionTime = 111.362 s  ClockTime = 112 s

forces forces write:
    Sum of forces
        Total    : (0.06276641 3.9258041 -0.14375985)
        Pressure : (0.060458966 3.9229171 -0.14371011)
        Viscous  : (0.0023074438 0.0028870384 -4.974403e-05)
    Sum of moments
        Total    : (-2.4907867 0.1021801 0.49648822)
        Pressure : (-2.4893059 0.10084312 0.49471548)
        Viscous  : (-0.0014807286 0.0013369802 0.0017727411)


Time = 11

smoothSolver:  Solving for Ux, Initial residual = 0.0028595364, Final residual = 7.4013962e-05, No Iterations 2
smoothSolver:  Solving for Uy, Initial residual = 0.00583266, Final residual = 0.00017538432, No Iterations 2
smoothSolver:  Solving for Uz, Initial residual = 0.0092680018, Final residual = 0.00024999431, No Iterations 2
GAMG:  Solving for p, Initial residual = 0.12496781, Final residual = 0.00073118053, No Iterations 4
GAMG:  Solving for p, Initial residual = 0.010618098, Final residual = 8.9302395e-05, No Iterations 4
GAMG:  Solving for p, Initial residual = 0.0011309592, Final residual = 9.4041357e-06, No Iterations 5
GAMG:  Solving for p, Initial residual = 0.0001984541, Final residual = 1.4408898e-06, No Iterations 5
GAMG:  Solving for p, Initial residual = 4.2045747e-05, Final residual = 2.8052792e-07, No Iterations 5
GAMG:  Solving for p, Initial residual = 1.0108991e-05, Final residual = 9.7882608e-08, No Iterations 4
time step continuity errors : sum local = 1.8067422e-08, global = 2.4414963e-10, cumulative = 1.3062996e-09
smoothSolver:  Solving for omega, Initial residual = 0.11237533, Final residual = 0.0077352845, No Iterations 3
smoothSolver:  Solving for k, Initial residual = 0.024352549, Final residual = 0.0015193063, No Iterations 3
ExecutionTime = 122.097 s  ClockTime = 122 s

forces forces write:
    Sum of forces
        Total    : (0.026891709 3.7295255 -0.14639749)
        Pressure : (0.024545509 3.726534 -0.14640556)
        Viscous  : (0.0023461994 0.0029914596 8.0747327e-06)
    Sum of moments
        Total    : (-2.3625622 0.08170083 0.43615174)
        Pressure : (-2.3610144 0.080346853 0.43427482)
        Viscous  : (-0.0015478438 0.0013539762 0.001876926)


Time = 12

smoothSolver:  Solving for Ux, Initial residual = 0.0021610264, Final residual = 5.2588701e-05, No Iterations 2
smoothSolver:  Solving for Uy, Initial residual = 0.0033970033, Final residual = 9.2877553e-05, No Iterations 2
smoothSolver:  Solving for Uz, Initial residual = 0.0081862218, Final residual = 0.00021906054, No Iterations 2
GAMG:  Solving for p, Initial residual = 0.1130335, Final residual = 0.00069183906, No Iterations 4
GAMG:  Solving for p, Initial residual = 0.010230416, Final residual = 8.2982162e-05, No Iterations 4
GAMG:  Solving for p, Initial residual = 0.0011189394, Final residual = 8.3707006e-06, No Iterations 5
GAMG:  Solving for p, Initial residual = 0.00020527658, Final residual = 1.3516231e-06, No Iterations 5
GAMG:  Solving for p, Initial residual = 4.420451e-05, Final residual = 2.8522234e-07, No Iterations 5
GAMG:  Solving for p, Initial residual = 1.1177229e-05, Final residual = 1.0839997e-07, No Iterations 4
time step continuity errors : sum local = 1.9382396e-08, global = 2.0163802e-10, cumulative = 1.5079376e-09
smoothSolver:  Solving for omega, Initial residual = 0.1021352, Final residual = 0.0070353819, No Iterations 3
smoothSolver:  Solving for k, Initial residual = 0.022238468, Final residual = 0.0013891961, No Iterations 3
ExecutionTime = 131.124 s  ClockTime = 132 s

forces forces write:
    Sum of forces
        Total    : (0.0041699476 3.539248 -0.14567267)
        Pressure : (0.0017449355 3.5361984 -0.14575098)
        Viscous  : (0.0024250121 0.0030496691 7.8305955e-05)
    Sum of moments
        Total    : (-2.2395509 0.068239468 0.39793897)
        Pressure : (-2.2379636 0.066845643 0.39598055)
        Viscous  : (-0.0015872983 0.0013938247 0.0019584179)


Time = 13

smoothSolver:  Solving for Ux, Initial residual = 0.0022590561, Final residual = 5.8381419e-05, No Iterations 2
smoothSolver:  Solving for Uy, Initial residual = 0.0040495712, Final residual = 0.00011636395, No Iterations 2
smoothSolver:  Solving for Uz, Initial residual = 0.0084710439, Final residual = 0.00023468508, No Iterations 2
GAMG:  Solving for p, Initial residual = 0.097142493, Final residual = 0.0003977552, No Iterations 4
GAMG:  Solving for p, Initial residual = 0.0073416462, Final residual = 3.4510656e-05, No Iterations 4
GAMG:  Solving for p, Initial residual = 0.00078408704, Final residual = 6.930744e-06, No Iterations 4
GAMG:  Solving for p, Initial residual = 0.0001554104, Final residual = 1.4047577e-06, No Iterations 4
GAMG:  Solving for p, Initial residual = 3.4983932e-05, Final residual = 3.4823461e-07, No Iterations 4
GAMG:  Solving for p, Initial residual = 9.065608e-06, Final residual = 8.6049674e-08, No Iterations 4
time step continuity errors : sum local = 1.5436798e-08, global = -5.8502304e-10, cumulative = 9.2291457e-10
smoothSolver:  Solving for omega, Initial residual = 0.093429255, Final residual = 0.0064393067, No Iterations 3
smoothSolver:  Solving for k, Initial residual = 0.020470288, Final residual = 0.001279555, No Iterations 3
ExecutionTime = 140.132 s  ClockTime = 141 s

forces forces write:
    Sum of forces
        Total    : (0.0081561133 3.4886067 -0.14271744)
        Pressure : (0.0056181728 3.4855375 -0.14286253)
        Viscous  : (0.0025379404 0.0030692003 0.0001450934)
    Sum of moments
        Total    : (-2.2081955 0.069793534 0.40675599)
        Pressure : (-2.2065951 0.06833925 0.40474772)
        Viscous  : (-0.0016004622 0.0014542838 0.0020082718)


Time = 14

smoothSolver:  Solving for Ux, Initial residual = 0.0022724337, Final residual = 5.9763348e-05, No Iterations 2
smoothSolver:  Solving for Uy, Initial residual = 0.0041131916, Final residual = 0.00012101832, No Iterations 2
smoothSolver:  Solving for Uz, Initial residual = 0.0083640084, Final residual = 0.0002353661, No Iterations 2
GAMG:  Solving for p, Initial residual = 0.096979528, Final residual = 0.00044085127, No Iterations 4
GAMG:  Solving for p, Initial residual = 0.0068500775, Final residual = 4.1324521e-05, No Iterations 4
GAMG:  Solving for p, Initial residual = 0.00067890631, Final residual = 4.7766087e-06, No Iterations 5
GAMG:  Solving for p, Initial residual = 0.00012831128, Final residual = 7.9206585e-07, No Iterations 5
GAMG:  Solving for p, Initial residual = 2.9332487e-05, Final residual = 2.7490403e-07, No Iterations 4
GAMG:  Solving for p, Initial residual = 7.7970354e-06, Final residual = 5.0674633e-08, No Iterations 5
time step continuity errors : sum local = 9.445383e-09, global = -1.6944563e-10, cumulative = 7.5346894e-10
smoothSolver:  Solving for omega, Initial residual = 0.085943231, Final residual = 0.0059260838, No Iterations 3
smoothSolver:  Solving for k, Initial residual = 0.018969919, Final residual = 0.0011859352, No Iterations 3
ExecutionTime = 149.442 s  ClockTime = 150 s

forces forces write:
    Sum of forces
        Total    : (0.030357358 3.5697392 -0.13927363)
        Pressure : (0.027706121 3.566682 -0.13946725)
        Viscous  : (0.0026512377 0.0030571837 0.00019361793)
    Sum of moments
        Total    : (-2.262223 0.081755293 0.44578099)
        Pressure : (-2.2606331 0.08023954 0.4437535)
        Viscous  : (-0.0015899363 0.0015157538 0.0020274892)


Time = 15

smoothSolver:  Solving for Ux, Initial residual = 0.0019464644, Final residual = 4.941655e-05, No Iterations 2
smoothSolver:  Solving for Uy, Initial residual = 0.0027077723, Final residual = 7.6542566e-05, No Iterations 2
smoothSolver:  Solving for Uz, Initial residual = 0.00753108, Final residual = 0.00020975742, No Iterations 2
GAMG:  Solving for p, Initial residual = 0.089456566, Final residual = 0.00047664229, No Iterations 4
GAMG:  Solving for p, Initial residual = 0.0069367211, Final residual = 4.9588275e-05, No Iterations 4
GAMG:  Solving for p, Initial residual = 0.00072646606, Final residual = 5.3016132e-06, No Iterations 5
GAMG:  Solving for p, Initial residual = 0.0001380488, Final residual = 9.045797e-07, No Iterations 5
GAMG:  Solving for p, Initial residual = 3.1192805e-05, Final residual = 1.9468106e-07, No Iterations 5
GAMG:  Solving for p, Initial residual = 8.0096019e-06, Final residual = 7.3966513e-08, No Iterations 4
time step continuity errors : sum local = 1.4078992e-08, global = -1.6236811e-10, cumulative = 5.9110083e-10
smoothSolver:  Solving for omega, Initial residual = 0.079440694, Final residual = 0.0054798289, No Iterations 3
smoothSolver:  Solving for k, Initial residual = 0.017680129, Final residual = 0.0011050265, No Iterations 3
ExecutionTime = 158.703 s  ClockTime = 159 s

forces forces write:
    Sum of forces
        Total    : (0.051166203 3.6841428 -0.13702591)
        Pressure : (0.048435222 3.681122 -0.13724409)
        Viscous  : (0.0027309802 0.0030208009 0.00021818453)
    Sum of moments
        Total    : (-2.3368131 0.093117692 0.47882569)
        Pressure : (-2.3352523 0.091560234 0.47680166)
        Viscous  : (-0.0015607987 0.0015574575 0.0020240312)


Time = 16

smoothSolver:  Solving for Ux, Initial residual = 0.0018307246, Final residual = 4.6551694e-05, No Iterations 2
smoothSolver:  Solving for Uy, Initial residual = 0.0025642241, Final residual = 7.4096127e-05, No Iterations 2
smoothSolver:  Solving for Uz, Initial residual = 0.0071282867, Final residual = 0.00019864424, No Iterations 2
GAMG:  Solving for p, Initial residual = 0.075953091, Final residual = 0.00030767858, No Iterations 4
GAMG:  Solving for p, Initial residual = 0.0055527075, Final residual = 3.0890447e-05, No Iterations 4
GAMG:  Solving for p, Initial residual = 0.00059024272, Final residual = 5.8726849e-06, No Iterations 4
GAMG:  Solving for p, Initial residual = 0.00011552944, Final residual = 6.6535457e-07, No Iterations 5
GAMG:  Solving for p, Initial residual = 2.4901854e-05, Final residual = 2.0541917e-07, No Iterations 4
GAMG:  Solving for p, Initial residual = 6.5473637e-06, Final residual = 6.2102514e-08, No Iterations 4
time step continuity errors : sum local = 1.1608108e-08, global = 3.1655795e-10, cumulative = 9.0765878e-10
smoothSolver:  Solving for omega, Initial residual = 0.073742599, Final residual = 0.0050883967, No Iterations 3
smoothSolver:  Solving for k, Initial residual = 0.016559817, Final residual = 0.0010344823, No Iterations 3
ExecutionTime = 167.828 s  ClockTime = 168 s

forces forces write:
    Sum of forces
        Total    : (0.056599902 3.7411115 -0.13688741)
        Pressure : (0.053830921 3.7381426 -0.13711182)
        Viscous  : (0.0027689813 0.0029689804 0.00022440771)
    Sum of moments
        Total    : (-2.3730722 0.096097808 0.48236258)
        Pressure : (-2.371551 0.094524252 0.48035329)
        Viscous  : (-0.0015211939 0.0015735558 0.0020092864)


Time = 17

smoothSolver:  Solving for Ux, Initial residual = 0.0018260322, Final residual = 4.8011451e-05, No Iterations 2
smoothSolver:  Solving for Uy, Initial residual = 0.0028081638, Final residual = 8.4137266e-05, No Iterations 2
smoothSolver:  Solving for Uz, Initial residual = 0.0070259785, Final residual = 0.00019835107, No Iterations 2
GAMG:  Solving for p, Initial residual = 0.070487313, Final residual = 0.0002500279, No Iterations 4
GAMG:  Solving for p, Initial residual = 0.0045920784, Final residual = 2.5637003e-05, No Iterations 4
GAMG:  Solving for p, Initial residual = 0.00046226937, Final residual = 3.2563765e-06, No Iterations 5
GAMG:  Solving for p, Initial residual = 8.4037817e-05, Final residual = 8.2931932e-07, No Iterations 4
GAMG:  Solving for p, Initial residual = 1.8377008e-05, Final residual = 1.2968126e-07, No Iterations 5
GAMG:  Solving for p, Initial residual = 4.5120298e-06, Final residual = 4.1360297e-08, No Iterations 4
time step continuity errors : sum local = 7.5165187e-09, global = 1.5191458e-10, cumulative = 1.0595734e-09
smoothSolver:  Solving for omega, Initial residual = 0.068712752, Final residual = 0.004742571, No Iterations 3
smoothSolver:  Solving for k, Initial residual = 0.015577263, Final residual = 0.0009724091, No Iterations 3
ExecutionTime = 176.497 s  ClockTime = 177 s

forces forces write:
    Sum of forces
        Total    : (0.047009921 3.7190961 -0.13843253)
        Pressure : (0.044226393 3.716185 -0.13865387)
        Viscous  : (0.0027835288 0.0029110518 0.00022133683)
    Sum of moments
        Total    : (-2.357801 0.090879119 0.46045271)
        Pressure : (-2.356322 0.089304784 0.45845813)
        Viscous  : (-0.0014790185 0.0015743346 0.0019945884)


Time = 18

smoothSolver:  Solving for Ux, Initial residual = 0.0016971151, Final residual = 4.4857507e-05, No Iterations 2
smoothSolver:  Solving for Uy, Initial residual = 0.0022975361, Final residual = 6.6751395e-05, No Iterations 2
smoothSolver:  Solving for Uz, Initial residual = 0.0067541894, Final residual = 0.00019147099, No Iterations 2
GAMG:  Solving for p, Initial residual = 0.067118374, Final residual = 0.00030476836, No Iterations 4
GAMG:  Solving for p, Initial residual = 0.0048277337, Final residual = 3.5675282e-05, No Iterations 4
GAMG:  Solving for p, Initial residual = 0.00050686346, Final residual = 3.8739881e-06, No Iterations 5
GAMG:  Solving for p, Initial residual = 9.7914887e-05, Final residual = 9.5515649e-07, No Iterations 4
GAMG:  Solving for p, Initial residual = 2.213213e-05, Final residual = 1.7642243e-07, No Iterations 5
GAMG:  Solving for p, Initial residual = 5.8959085e-06, Final residual = 5.8201581e-08, No Iterations 4
time step continuity errors : sum local = 1.0382924e-08, global = 9.9736406e-11, cumulative = 1.1593098e-09
smoothSolver:  Solving for omega, Initial residual = 0.064242908, Final residual = 0.004435029, No Iterations 3
smoothSolver:  Solving for k, Initial residual = 0.014708838, Final residual = 0.00091739925, No Iterations 3
ExecutionTime = 186.202 s  ClockTime = 187 s

forces forces write:
    Sum of forces
        Total    : (0.0330961 3.6589423 -0.14031042)
        Pressure : (0.030293956 3.6560869 -0.140525)
        Viscous  : (0.0028021437 0.002855359 0.0002145846)
    Sum of moments
        Total    : (-2.3184182 0.083272505 0.4351505)
        Pressure : (-2.3169771 0.081696238 0.4331634)
        Viscous  : (-0.0014410894 0.0015762672 0.0019871014)


Time = 19

smoothSolver:  Solving for Ux, Initial residual = 0.0016172306, Final residual = 4.2985414e-05, No Iterations 2
smoothSolver:  Solving for Uy, Initial residual = 0.0019955119, Final residual = 5.5989901e-05, No Iterations 2
smoothSolver:  Solving for Uz, Initial residual = 0.0066310137, Final residual = 0.00018848269, No Iterations 2
GAMG:  Solving for p, Initial residual = 0.060277235, Final residual = 0.0002393118, No Iterations 4
GAMG:  Solving for p, Initial residual = 0.0044673914, Final residual = 2.6010101e-05, No Iterations 4
GAMG:  Solving for p, Initial residual = 0.00049902738, Final residual = 2.874663e-06, No Iterations 5
GAMG:  Solving for p, Initial residual = 0.00010238283, Final residual = 7.8281084e-07, No Iterations 4
GAMG:  Solving for p, Initial residual = 2.3052908e-05, Final residual = 1.5193034e-07, No Iterations 5
GAMG:  Solving for p, Initial residual = 6.2293543e-06, Final residual = 5.2597906e-08, No Iterations 4
time step continuity errors : sum local = 9.3065623e-09, global = -9.0252553e-11, cumulative = 1.0690572e-09
smoothSolver:  Solving for omega, Initial residual = 0.060248138, Final residual = 0.0041599924, No Iterations 3
smoothSolver:  Solving for k, Initial residual = 0.013935615, Final residual = 0.00086834313, No Iterations 3
ExecutionTime = 195.208 s  ClockTime = 196 s

forces forces write:
    Sum of forces
        Total    : (0.025638226 3.6155621 -0.14130899)
        Pressure : (0.022797762 3.6127527 -0.14151704)
        Viscous  : (0.0028404645 0.0028093822 0.00020805482)
    Sum of moments
        Total    : (-2.2909015 0.079112062 0.42583542)
        Pressure : (-2.2894896 0.07752312 0.42384683)
        Viscous  : (-0.0014119259 0.0015889417 0.0019885897)


Time = 20

smoothSolver:  Solving for Ux, Initial residual = 0.001599523, Final residual = 4.2987161e-05, No Iterations 2
smoothSolver:  Solving for Uy, Initial residual = 0.0020666279, Final residual = 5.9188166e-05, No Iterations 2
smoothSolver:  Solving for Uz, Initial residual = 0.0065867013, Final residual = 0.00018892177, No Iterations 2
GAMG:  Solving for p, Initial residual = 0.055698726, Final residual = 0.00018612735, No Iterations 4
GAMG:  Solving for p, Initial residual = 0.0036464303, Final residual = 3.3436528e-05, No Iterations 3
GAMG:  Solving for p, Initial residual = 0.00041547125, Final residual = 4.1179576e-06, No Iterations 4
GAMG:  Solving for p, Initial residual = 8.6389768e-05, Final residual = 7.7734285e-07, No Iterations 4
GAMG:  Solving for p, Initial residual = 1.9742656e-05, Final residual = 1.3098371e-07, No Iterations 5
GAMG:  Solving for p, Initial residual = 5.3059004e-06, Final residual = 4.117168e-08, No Iterations 4
time step continuity errors : sum local = 7.3139337e-09, global = -2.4259398e-10, cumulative = 8.2646323e-10
smoothSolver:  Solving for omega, Initial residual = 0.056659009, Final residual = 0.0039127395, No Iterations 3
smoothSolver:  Solving for k, Initial residual = 0.013243034, Final residual = 0.0008243524, No Iterations 3
ExecutionTime = 203.99 s  ClockTime = 204 s

forces forces write:
    Sum of forces
        Total    : (0.027979735 3.6147824 -0.14092189)
        Pressure : (0.025085909 3.612004 -0.1411259)
        Viscous  : (0.0028938261 0.0027784439 0.00020400659)
    Sum of moments
        Total    : (-2.2915537 0.080144336 0.43544454)
        Pressure : (-2.2901604 0.078534335 0.43344808)
        Viscous  : (-0.0013933456 0.0016100011 0.0019964578)


Time = 21

smoothSolver:  Solving for Ux, Initial residual = 0.0015460453, Final residual = 4.1434379e-05, No Iterations 2
smoothSolver:  Solving for Uy, Initial residual = 0.0018203628, Final residual = 5.1978781e-05, No Iterations 2
smoothSolver:  Solving for Uz, Initial residual = 0.0064026434, Final residual = 0.0001841761, No Iterations 2
GAMG:  Solving for p, Initial residual = 0.0529862, Final residual = 0.00019754787, No Iterations 4
GAMG:  Solving for p, Initial residual = 0.0032739212, Final residual = 1.9252512e-05, No Iterations 4
GAMG:  Solving for p, Initial residual = 0.00034813018, Final residual = 2.0853101e-06, No Iterations 5
GAMG:  Solving for p, Initial residual = 6.9118611e-05, Final residual = 5.5956323e-07, No Iterations 4
GAMG:  Solving for p, Initial residual = 1.6191176e-05, Final residual = 1.5546033e-07, No Iterations 4
GAMG:  Solving for p, Initial residual = 4.3038103e-06, Final residual = 4.1632997e-08, No Iterations 4
time step continuity errors : sum local = 7.4488119e-09, global = -1.4295746e-10, cumulative = 6.8350577e-10
smoothSolver:  Solving for omega, Initial residual = 0.053418609, Final residual = 0.0036893977, No Iterations 3
smoothSolver:  Solving for k, Initial residual = 0.012619278, Final residual = 0.0007846859, No Iterations 3
ExecutionTime = 212.77 s  ClockTime = 213 s

forces forces write:
    Sum of forces
        Total    : (0.035815536 3.6440708 -0.13963132)
        Pressure : (0.032868715 3.6413054 -0.13983336)
        Viscous  : (0.0029468205 0.0027653568 0.00020203838)
    Sum of moments
        Total    : (-2.3114766 0.084053816 0.45225114)
        Pressure : (-2.310091 0.082422972 0.45024405)
        Viscous  : (-0.0013856127 0.0016308436 0.0020070927)


Time = 22

smoothSolver:  Solving for Ux, Initial residual = 0.0014778143, Final residual = 3.9459581e-05, No Iterations 2
smoothSolver:  Solving for Uy, Initial residual = 0.0015843615, Final residual = 4.4478275e-05, No Iterations 2
smoothSolver:  Solving for Uz, Initial residual = 0.0061973877, Final residual = 0.00017874614, No Iterations 2
GAMG:  Solving for p, Initial residual = 0.048226233, Final residual = 0.00017744243, No Iterations 4
GAMG:  Solving for p, Initial residual = 0.0031332713, Final residual = 1.6559502e-05, No Iterations 4
GAMG:  Solving for p, Initial residual = 0.00033696005, Final residual = 2.951708e-06, No Iterations 4
GAMG:  Solving for p, Initial residual = 6.8686518e-05, Final residual = 6.0748197e-07, No Iterations 4
GAMG:  Solving for p, Initial residual = 1.5545654e-05, Final residual = 9.6133591e-08, No Iterations 5
GAMG:  Solving for p, Initial residual = 4.0505829e-06, Final residual = 3.0082553e-08, No Iterations 4
time step continuity errors : sum local = 5.3732542e-09, global = -4.1573193e-11, cumulative = 6.4193257e-10
smoothSolver:  Solving for omega, Initial residual = 0.05048012, Final residual = 0.0034867948, No Iterations 3
smoothSolver:  Solving for k, Initial residual = 0.012054496, Final residual = 0.00074877526, No Iterations 3
ExecutionTime = 221.614 s  ClockTime = 222 s

forces forces write:
    Sum of forces
        Total    : (0.042384964 3.6737102 -0.13835934)
        Pressure : (0.039398775 3.6709415 -0.13856044)
        Viscous  : (0.0029861884 0.0027686718 0.00020110487)
    Sum of moments
        Total    : (-2.3309654 0.087293799 0.46225921)
        Pressure : (-2.3295787 0.085649728 0.46024067)
        Viscous  : (-0.0013867101 0.0016440715 0.0020185404)


Time = 23

smoothSolver:  Solving for Ux, Initial residual = 0.0014429061, Final residual = 3.8793305e-05, No Iterations 2
smoothSolver:  Solving for Uy, Initial residual = 0.0016224196, Final residual = 4.6266836e-05, No Iterations 2
smoothSolver:  Solving for Uz, Initial residual = 0.0060740036, Final residual = 0.00017664637, No Iterations 2
GAMG:  Solving for p, Initial residual = 0.044095975, Final residual = 0.00013801425, No Iterations 4
GAMG:  Solving for p, Initial residual = 0.0028296693, Final residual = 2.3086598e-05, No Iterations 3
GAMG:  Solving for p, Initial residual = 0.00031987456, Final residual = 2.8469365e-06, No Iterations 4
GAMG:  Solving for p, Initial residual = 6.4420639e-05, Final residual = 5.3333932e-07, No Iterations 4
GAMG:  Solving for p, Initial residual = 1.4314546e-05, Final residual = 1.3879098e-07, No Iterations 4
GAMG:  Solving for p, Initial residual = 3.7750596e-06, Final residual = 3.5043308e-08, No Iterations 4
time step continuity errors : sum local = 6.2029799e-09, global = 2.1742142e-10, cumulative = 8.59354e-10
smoothSolver:  Solving for omega, Initial residual = 0.047804529, Final residual = 0.0033022352, No Iterations 3
smoothSolver:  Solving for k, Initial residual = 0.011541001, Final residual = 0.00071612397, No Iterations 3
ExecutionTime = 230.526 s  ClockTime = 231 s

forces forces write:
    Sum of forces
        Total    : (0.04380828 3.6832718 -0.13784593)
        Pressure : (0.040798937 3.6804886 -0.13804586)
        Viscous  : (0.0030093425 0.0027831949 0.00019993377)
    Sum of moments
        Total    : (-2.3369391 0.087903466 0.46000492)
        Pressure : (-2.3355457 0.086255021 0.45797386)
        Viscous  : (-0.0013933626 0.0016484442 0.0020310594)


Time = 24

smoothSolver:  Solving for Ux, Initial residual = 0.0014145182, Final residual = 3.8220217e-05, No Iterations 2
smoothSolver:  Solving for Uy, Initial residual = 0.0015488966, Final residual = 4.4314393e-05, No Iterations 2
smoothSolver:  Solving for Uz, Initial residual = 0.0059622262, Final residual = 0.00017582921, No Iterations 2
GAMG:  Solving for p, Initial residual = 0.041539343, Final residual = 0.00013257716, No Iterations 4
GAMG:  Solving for p, Initial residual = 0.0025193018, Final residual = 1.4232619e-05, No Iterations 4
GAMG:  Solving for p, Initial residual = 0.00028127458, Final residual = 1.732514e-06, No Iterations 5
GAMG:  Solving for p, Initial residual = 5.5707431e-05, Final residual = 4.8107017e-07, No Iterations 4
GAMG:  Solving for p, Initial residual = 1.2512622e-05, Final residual = 8.127682e-08, No Iterations 5
GAMG:  Solving for p, Initial residual = 3.1862837e-06, Final residual = 2.5797371e-08, No Iterations 4
time step continuity errors : sum local = 4.527412e-09, global = 8.0093152e-11, cumulative = 9.3944715e-10
smoothSolver:  Solving for omega, Initial residual = 0.045358972, Final residual = 0.0031334906, No Iterations 3
smoothSolver:  Solving for k, Initial residual = 0.011072176, Final residual = 0.00068630764, No Iterations 3
ExecutionTime = 239.325 s  ClockTime = 240 s

forces forces write:
    Sum of forces
        Total    : (0.040872208 3.6731338 -0.13818359)
        Pressure : (0.037848711 3.6703321 -0.13838069)
        Viscous  : (0.0030234969 0.0028017489 0.00019709914)
    Sum of moments
        Total    : (-2.3301722 0.086334898 0.45033868)
        Pressure : (-2.3287705 0.084686727 0.44829318)
        Viscous  : (-0.0014017093 0.0016481713 0.0020455048)


Time = 25

smoothSolver:  Solving for Ux, Initial residual = 0.0013792901, Final residual = 3.7429335e-05, No Iterations 2
smoothSolver:  Solving for Uy, Initial residual = 0.0013633618, Final residual = 3.8520202e-05, No Iterations 2
smoothSolver:  Solving for Uz, Initial residual = 0.0058777201, Final residual = 0.00017563339, No Iterations 2
GAMG:  Solving for p, Initial residual = 0.038450737, Final residual = 0.0001242661, No Iterations 4
GAMG:  Solving for p, Initial residual = 0.0022740954, Final residual = 1.3092473e-05, No Iterations 4
GAMG:  Solving for p, Initial residual = 0.00025703619, Final residual = 2.2114542e-06, No Iterations 4
GAMG:  Solving for p, Initial residual = 5.1220193e-05, Final residual = 4.5302974e-07, No Iterations 4
GAMG:  Solving for p, Initial residual = 1.15204e-05, Final residual = 1.124511e-07, No Iterations 4
GAMG:  Solving for p, Initial residual = 2.9877405e-06, Final residual = 2.9450566e-08, No Iterations 4
time step continuity errors : sum local = 5.147173e-09, global = 2.6850687e-11, cumulative = 9.6629784e-10
smoothSolver:  Solving for omega, Initial residual = 0.043115988, Final residual = 0.0029786871, No Iterations 3
smoothSolver:  Solving for k, Initial residual = 0.010642579, Final residual = 0.0006590006, No Iterations 3
ExecutionTime = 248.437 s  ClockTime = 249 s

forces forces write:
    Sum of forces
        Total    : (0.037059701 3.6574416 -0.13890744)
        Pressure : (0.034020734 3.6546243 -0.13909807)
        Viscous  : (0.0030389669 0.0028172929 0.0001906277)
    Sum of moments
        Total    : (-2.3202193 0.084371018 0.44213865)
        Pressure : (-2.3188113 0.082721644 0.44007679)
        Viscous  : (-0.0014080781 0.0016493739 0.0020618576)


Time = 26

smoothSolver:  Solving for Ux, Initial residual = 0.0013500794, Final residual = 3.6733917e-05, No Iterations 2
smoothSolver:  Solving for Uy, Initial residual = 0.0013224737, Final residual = 3.8006891e-05, No Iterations 2
smoothSolver:  Solving for Uz, Initial residual = 0.0058236225, Final residual = 0.00017600912, No Iterations 2
GAMG:  Solving for p, Initial residual = 0.035409959, Final residual = 0.00033507024, No Iterations 3
GAMG:  Solving for p, Initial residual = 0.0022355697, Final residual = 1.3592136e-05, No Iterations 4
GAMG:  Solving for p, Initial residual = 0.00024722082, Final residual = 1.8848773e-06, No Iterations 4
GAMG:  Solving for p, Initial residual = 4.9731694e-05, Final residual = 3.1510645e-07, No Iterations 4
GAMG:  Solving for p, Initial residual = 1.1195379e-05, Final residual = 7.529577e-08, No Iterations 4
GAMG:  Solving for p, Initial residual = 2.9669685e-06, Final residual = 1.7950389e-08, No Iterations 4
time step continuity errors : sum local = 3.1378076e-09, global = -1.37147e-10, cumulative = 8.2915083e-10
smoothSolver:  Solving for omega, Initial residual = 0.041052172, Final residual = 0.002836216, No Iterations 3
smoothSolver:  Solving for k, Initial residual = 0.010247454, Final residual = 0.0006338984, No Iterations 3
ExecutionTime = 257.812 s  ClockTime = 258 s

forces forces write:
    Sum of forces
        Total    : (0.035357014 3.6497931 -0.13938869)
        Pressure : (0.032295282 3.6469666 -0.13956849)
        Viscous  : (0.0030617325 0.0028264434 0.00017979325)
    Sum of moments
        Total    : (-2.3159113 0.083478358 0.44088115)
        Pressure : (-2.3145007 0.081822772 0.43880224)
        Viscous  : (-0.0014105451 0.0016555862 0.002078912)


Time = 27

smoothSolver:  Solving for Ux, Initial residual = 0.0013258154, Final residual = 3.6061518e-05, No Iterations 2
smoothSolver:  Solving for Uy, Initial residual = 0.0012806435, Final residual = 3.742455e-05, No Iterations 2
smoothSolver:  Solving for Uz, Initial residual = 0.0057493409, Final residual = 0.0001758267, No Iterations 2
GAMG:  Solving for p, Initial residual = 0.033096811, Final residual = 0.00031970247, No Iterations 3
GAMG:  Solving for p, Initial residual = 0.0020564181, Final residual = 1.3080254e-05, No Iterations 4
GAMG:  Solving for p, Initial residual = 0.00022696386, Final residual = 1.350433e-06, No Iterations 5
GAMG:  Solving for p, Initial residual = 4.5625655e-05, Final residual = 3.5470467e-07, No Iterations 4
GAMG:  Solving for p, Initial residual = 1.0384296e-05, Final residual = 6.3985228e-08, No Iterations 5
GAMG:  Solving for p, Initial residual = 2.738018e-06, Final residual = 2.0110918e-08, No Iterations 4
time step continuity errors : sum local = 3.5229918e-09, global = -8.437278e-11, cumulative = 7.4477805e-10
smoothSolver:  Solving for omega, Initial residual = 0.039147463, Final residual = 0.0027046807, No Iterations 3
smoothSolver:  Solving for k, Initial residual = 0.0098829742, Final residual = 0.00061074278, No Iterations 3
ExecutionTime = 267.389 s  ClockTime = 268 s

forces forces write:
    Sum of forces
        Total    : (0.036383806 3.6537762 -0.13930694)
        Pressure : (0.033291911 3.6509468 -0.1394734)
        Viscous  : (0.0030918952 0.0028294327 0.00016645612)
    Sum of moments
        Total    : (-2.3192739 0.083914842 0.44560601)
        Pressure : (-2.3178649 0.082247494 0.44351128)
        Viscous  : (-0.0014089993 0.0016673474 0.0020947273)


Time = 28

smoothSolver:  Solving for Ux, Initial residual = 0.0013012273, Final residual = 3.5302753e-05, No Iterations 2
smoothSolver:  Solving for Uy, Initial residual = 0.0012002767, Final residual = 3.51197e-05, No Iterations 2
smoothSolver:  Solving for Uz, Initial residual = 0.0056613067, Final residual = 0.0001751443, No Iterations 2
GAMG:  Solving for p, Initial residual = 0.030778232, Final residual = 0.0003027262, No Iterations 3
GAMG:  Solving for p, Initial residual = 0.0018829511, Final residual = 1.3822442e-05, No Iterations 4
GAMG:  Solving for p, Initial residual = 0.0002050312, Final residual = 1.4156692e-06, No Iterations 5
GAMG:  Solving for p, Initial residual = 4.0665694e-05, Final residual = 3.6572557e-07, No Iterations 4
GAMG:  Solving for p, Initial residual = 9.2940829e-06, Final residual = 6.1895524e-08, No Iterations 5
GAMG:  Solving for p, Initial residual = 2.4228219e-06, Final residual = 1.9717567e-08, No Iterations 4
time step continuity errors : sum local = 3.4566291e-09, global = -6.2305e-11, cumulative = 6.8247305e-10
smoothSolver:  Solving for omega, Initial residual = 0.037384583, Final residual = 0.0025828879, No Iterations 3
smoothSolver:  Solving for k, Initial residual = 0.0095457863, Final residual = 0.00058932596, No Iterations 3
ExecutionTime = 276.12 s  ClockTime = 277 s

forces forces write:
    Sum of forces
        Total    : (0.038730195 3.6636277 -0.13875579)
        Pressure : (0.035605091 3.6607987 -0.13890958)
        Viscous  : (0.0031251041 0.0028290052 0.00015379807)
    Sum of moments
        Total    : (-2.3262412 0.08495405 0.45137428)
        Pressure : (-2.3248367 0.083271542 0.44926634)
        Viscous  : (-0.0014044455 0.0016825088 0.0021079443)


Time = 29

smoothSolver:  Solving for Ux, Initial residual = 0.0012800172, Final residual = 3.4773149e-05, No Iterations 2
smoothSolver:  Solving for Uy, Initial residual = 0.0011688117, Final residual = 3.4426222e-05, No Iterations 2
smoothSolver:  Solving for Uz, Initial residual = 0.0055852395, Final residual = 0.00017458299, No Iterations 2
GAMG:  Solving for p, Initial residual = 0.028382247, Final residual = 0.00025363096, No Iterations 3
GAMG:  Solving for p, Initial residual = 0.0016856103, Final residual = 1.0079977e-05, No Iterations 4
GAMG:  Solving for p, Initial residual = 0.00018339969, Final residual = 1.5143388e-06, No Iterations 4
GAMG:  Solving for p, Initial residual = 3.6631893e-05, Final residual = 3.2368346e-07, No Iterations 4
GAMG:  Solving for p, Initial residual = 8.2536608e-06, Final residual = 5.088019e-08, No Iterations 5
GAMG:  Solving for p, Initial residual = 2.1542042e-06, Final residual = 1.6424516e-08, No Iterations 4
time step continuity errors : sum local = 2.8726657e-09, global = -3.0328952e-11, cumulative = 6.521441e-10
smoothSolver:  Solving for omega, Initial residual = 0.035748603, Final residual = 0.0024698221, No Iterations 3
smoothSolver:  Solving for k, Initial residual = 0.009232974, Final residual = 0.0005694578, No Iterations 3
ExecutionTime = 284.041 s  ClockTime = 284 s

forces forces write:
    Sum of forces
        Total    : (0.040572397 3.6712624 -0.13810284)
        Pressure : (0.037414101 3.6684354 -0.13824788)
        Viscous  : (0.0031582956 0.0028270506 0.00014503351)
    Sum of moments
        Total    : (-2.3314522 0.085727046 0.45388719)
        Pressure : (-2.3300547 0.084027031 0.4517685)
        Viscous  : (-0.0013975326 0.0017000151 0.0021186878)


Time = 30

smoothSolver:  Solving for Ux, Initial residual = 0.001263171, Final residual = 3.4382819e-05, No Iterations 2
smoothSolver:  Solving for Uy, Initial residual = 0.0011380214, Final residual = 3.3783544e-05, No Iterations 2
smoothSolver:  Solving for Uz, Initial residual = 0.0055199055, Final residual = 0.00017407013, No Iterations 2
GAMG:  Solving for p, Initial residual = 0.026502547, Final residual = 0.00023733201, No Iterations 3
GAMG:  Solving for p, Initial residual = 0.0015702361, Final residual = 6.8653083e-06, No Iterations 4
GAMG:  Solving for p, Initial residual = 0.00017245837, Final residual = 9.9981054e-07, No Iterations 4
GAMG:  Solving for p, Initial residual = 3.5108412e-05, Final residual = 2.2176863e-07, No Iterations 4
GAMG:  Solving for p, Initial residual = 7.8666801e-06, Final residual = 5.4646438e-08, No Iterations 4
GAMG:  Solving for p, Initial residual = 2.0827517e-06, Final residual = 1.4127669e-08, No Iterations 4
time step continuity errors : sum local = 2.4619798e-09, global = 9.5108458e-11, cumulative = 7.4725256e-10
smoothSolver:  Solving for omega, Initial residual = 0.03422651, Final residual = 0.002364585, No Iterations 3
smoothSolver:  Solving for k, Initial residual = 0.008942184, Final residual = 0.0005509809, No Iterations 3
ExecutionTime = 291.811 s  ClockTime = 292 s

forces forces write:
    Sum of forces
        Total    : (0.041043877 3.6727443 -0.13770511)
        Pressure : (0.03785311 3.6699204 -0.13784652)
        Viscous  : (0.0031907671 0.0028238968 0.00014140824)
    Sum of moments
        Total    : (-2.3324884 0.085869511 0.45238496)
        Pressure : (-2.3311004 0.084149578 0.45025661)
        Viscous  : (-0.0013880462 0.0017199332 0.002128356)


Time = 31

smoothSolver:  Solving for Ux, Initial residual = 0.0012444265, Final residual = 3.3940382e-05, No Iterations 2
smoothSolver:  Solving for Uy, Initial residual = 0.0010673426, Final residual = 3.1511708e-05, No Iterations 2
smoothSolver:  Solving for Uz, Initial residual = 0.0054643153, Final residual = 0.0001735975, No Iterations 2
GAMG:  Solving for p, Initial residual = 0.024748547, Final residual = 0.00022397258, No Iterations 3
GAMG:  Solving for p, Initial residual = 0.0014838652, Final residual = 7.1918577e-06, No Iterations 4
GAMG:  Solving for p, Initial residual = 0.00016726362, Final residual = 1.14676e-06, No Iterations 4
GAMG:  Solving for p, Initial residual = 3.4559441e-05, Final residual = 2.5563407e-07, No Iterations 4
GAMG:  Solving for p, Initial residual = 7.8010901e-06, Final residual = 7.1537934e-08, No Iterations 4
GAMG:  Solving for p, Initial residual = 2.0913541e-06, Final residual = 1.9753962e-08, No Iterations 4
time step continuity errors : sum local = 3.4324376e-09, global = 1.5988963e-11, cumulative = 7.6324152e-10
smoothSolver:  Solving for omega, Initial residual = 0.032807171, Final residual = 0.0022664076, No Iterations 3
smoothSolver:  Solving for k, Initial residual = 0.0086712163, Final residual = 0.00053375542, No Iterations 3
ExecutionTime = 299.44 s  ClockTime = 300 s

forces forces write:
    Sum of forces
        Total    : (0.040506188 3.6697474 -0.13765896)
        Pressure : (0.037281439 3.6669291 -0.1378011)
        Viscous  : (0.0032247487 0.0028182947 0.00014213987)
    Sum of moments
        Total    : (-2.3306557 0.085587714 0.44918865)
        Pressure : (-2.3292803 0.083844356 0.44704977)
        Viscous  : (-0.0013753604 0.0017433584 0.0021388842)


Time = 32

smoothSolver:  Solving for Ux, Initial residual = 0.0012259479, Final residual = 3.3422157e-05, No Iterations 2
smoothSolver:  Solving for Uy, Initial residual = 0.0010168703, Final residual = 2.9965427e-05, No Iterations 2
smoothSolver:  Solving for Uz, Initial residual = 0.0054192278, Final residual = 0.00017291792, No Iterations 2
GAMG:  Solving for p, Initial residual = 0.023090368, Final residual = 0.00019107614, No Iterations 3
GAMG:  Solving for p, Initial residual = 0.0013735581, Final residual = 1.3643461e-05, No Iterations 3
GAMG:  Solving for p, Initial residual = 0.00016637161, Final residual = 1.3226011e-06, No Iterations 4
GAMG:  Solving for p, Initial residual = 3.4706259e-05, Final residual = 2.2844774e-07, No Iterations 4
GAMG:  Solving for p, Initial residual = 8.0199893e-06, Final residual = 5.2837521e-08, No Iterations 4
GAMG:  Solving for p, Initial residual = 2.1820079e-06, Final residual = 1.2652124e-08, No Iterations 4
time step continuity errors : sum local = 2.195642e-09, global = -1.0241474e-10, cumulative = 6.6082678e-10
smoothSolver:  Solving for omega, Initial residual = 0.031480584, Final residual = 0.0021745974, No Iterations 3
smoothSolver:  Solving for k, Initial residual = 0.0084181704, Final residual = 0.00051766508, No Iterations 3
ExecutionTime = 307.08 s  ClockTime = 307 s

forces forces write:
    Sum of forces
        Total    : (0.039892049 3.6665697 -0.13775799)
        Pressure : (0.036627812 3.6637616 -0.13790487)
        Viscous  : (0.0032642371 0.002808099 0.00014687772)
    Sum of moments
        Total    : (-2.3288535 0.085305498 0.44715884)
        Pressure : (-2.3274952 0.083533103 0.4450069)
        Viscous  : (-0.0013582138 0.0017723954 0.0021519397)


Time = 33

smoothSolver:  Solving for Ux, Initial residual = 0.0012109196, Final residual = 3.2955829e-05, No Iterations 2
smoothSolver:  Solving for Uy, Initial residual = 0.00099742049, Final residual = 2.9535409e-05, No Iterations 2
smoothSolver:  Solving for Uz, Initial residual = 0.0053715149, Final residual = 0.00017175258, No Iterations 2
GAMG:  Solving for p, Initial residual = 0.021611221, Final residual = 0.00017403669, No Iterations 3
GAMG:  Solving for p, Initial residual = 0.001250857, Final residual = 6.3613358e-06, No Iterations 4
GAMG:  Solving for p, Initial residual = 0.00015162081, Final residual = 1.2427862e-06, No Iterations 4
GAMG:  Solving for p, Initial residual = 3.3086711e-05, Final residual = 2.9773863e-07, No Iterations 4
GAMG:  Solving for p, Initial residual = 7.9360544e-06, Final residual = 7.8622007e-08, No Iterations 4
GAMG:  Solving for p, Initial residual = 2.1742959e-06, Final residual = 2.1016389e-08, No Iterations 4
time step continuity errors : sum local = 3.6470531e-09, global = -9.2515606e-11, cumulative = 5.6831117e-10
smoothSolver:  Solving for omega, Initial residual = 0.030237952, Final residual = 0.0020885576, No Iterations 3
smoothSolver:  Solving for k, Initial residual = 0.0081814632, Final residual = 0.00050260551, No Iterations 3
ExecutionTime = 314.839 s  ClockTime = 315 s

forces forces write:
    Sum of forces
        Total    : (0.039880317 3.6662534 -0.13773713)
        Pressure : (0.036565988 3.6634619 -0.13789195)
        Viscous  : (0.0033143292 0.002791503 0.00015481596)
    Sum of moments
        Total    : (-2.329006 0.085299317 0.44750383)
        Pressure : (-2.3276704 0.083488767 0.4453353)
        Viscous  : (-0.0013355981 0.0018105495 0.0021685281)


Time = 34

smoothSolver:  Solving for Ux, Initial residual = 0.0011969432, Final residual = 3.2620478e-05, No Iterations 2
smoothSolver:  Solving for Uy, Initial residual = 0.00097482496, Final residual = 2.8871661e-05, No Iterations 2
smoothSolver:  Solving for Uz, Initial residual = 0.0053156426, Final residual = 0.00017022644, No Iterations 2
GAMG:  Solving for p, Initial residual = 0.020251387, Final residual = 0.00015508863, No Iterations 3
GAMG:  Solving for p, Initial residual = 0.0011427906, Final residual = 7.7610682e-06, No Iterations 4
GAMG:  Solving for p, Initial residual = 0.00014202977, Final residual = 9.4608741e-07, No Iterations 5
GAMG:  Solving for p, Initial residual = 3.0419182e-05, Final residual = 2.4750376e-07, No Iterations 4
GAMG:  Solving for p, Initial residual = 7.297052e-06, Final residual = 6.8830468e-08, No Iterations 4
GAMG:  Solving for p, Initial residual = 2.0042608e-06, Final residual = 1.8771995e-08, No Iterations 4
time step continuity errors : sum local = 3.2586083e-09, global = -7.288708e-11, cumulative = 4.9542409e-10
smoothSolver:  Solving for omega, Initial residual = 0.029071755, Final residual = 0.0020077671, No Iterations 3
smoothSolver:  Solving for k, Initial residual = 0.0079595936, Final residual = 0.00048847854, No Iterations 3
ExecutionTime = 322.939 s  ClockTime = 323 s

forces forces write:
    Sum of forces
        Total    : (0.040522485 3.668836 -0.13745753)
        Pressure : (0.037143644 3.6660689 -0.13762479)
        Viscous  : (0.0033788412 0.0027671014 0.00016725912)
    Sum of moments
        Total    : (-2.3309958 0.085561521 0.44940703)
        Pressure : (-2.3296896 0.083700697 0.44721796)
        Viscous  : (-0.0013061973 0.0018608239 0.0021890758)


Time = 35

smoothSolver:  Solving for Ux, Initial residual = 0.0011835008, Final residual = 3.23674e-05, No Iterations 2
smoothSolver:  Solving for Uy, Initial residual = 0.00094892684, Final residual = 2.800555e-05, No Iterations 2
smoothSolver:  Solving for Uz, Initial residual = 0.005260253, Final residual = 0.00016865296, No Iterations 2
GAMG:  Solving for p, Initial residual = 0.01903589, Final residual = 0.00013713499, No Iterations 3
GAMG:  Solving for p, Initial residual = 0.0010568574, Final residual = 7.2918188e-06, No Iterations 4
GAMG:  Solving for p, Initial residual = 0.00013298067, Final residual = 8.7465986e-07, No Iterations 5
GAMG:  Solving for p, Initial residual = 2.8298833e-05, Final residual = 2.3376216e-07, No Iterations 4
GAMG:  Solving for p, Initial residual = 6.7661419e-06, Final residual = 6.543261e-08, No Iterations 4
GAMG:  Solving for p, Initial residual = 1.8762119e-06, Final residual = 1.7737522e-08, No Iterations 4
time step continuity errors : sum local = 3.0781529e-09, global = -6.3399471e-11, cumulative = 4.3202462e-10
smoothSolver:  Solving for omega, Initial residual = 0.027975269, Final residual = 0.0019317702, No Iterations 3
smoothSolver:  Solving for k, Initial residual = 0.0077513251, Final residual = 0.00047521162, No Iterations 3
ExecutionTime = 332.958 s  ClockTime = 333 s

forces forces write:
    Sum of forces
        Total    : (0.041426172 3.672269 -0.13695726)
        Pressure : (0.037966686 3.6695355 -0.13714268)
        Viscous  : (0.0034594865 0.0027334872 0.00018541178)
    Sum of moments
        Total    : (-2.3333974 0.08591475 0.45119805)
        Pressure : (-2.3321286 0.083990307 0.44898439)
        Viscous  : (-0.0012687791 0.0019244426 0.0022136539)


Time = 36

smoothSolver:  Solving for Ux, Initial residual = 0.0011705981, Final residual = 3.2120444e-05, No Iterations 2
smoothSolver:  Solving for Uy, Initial residual = 0.00092180437, Final residual = 2.7140922e-05, No Iterations 2
smoothSolver:  Solving for Uz, Initial residual = 0.0052149196, Final residual = 0.00016726313, No Iterations 2
GAMG:  Solving for p, Initial residual = 0.017927446, Final residual = 0.0001260537, No Iterations 3
GAMG:  Solving for p, Initial residual = 0.00098545845, Final residual = 5.7522107e-06, No Iterations 4
GAMG:  Solving for p, Initial residual = 0.00012334775, Final residual = 7.4137351e-07, No Iterations 5
GAMG:  Solving for p, Initial residual = 2.635256e-05, Final residual = 2.1412671e-07, No Iterations 4
GAMG:  Solving for p, Initial residual = 6.2581087e-06, Final residual = 6.2002112e-08, No Iterations 4
GAMG:  Solving for p, Initial residual = 1.7321709e-06, Final residual = 1.0184913e-08, No Iterations 5
time step continuity errors : sum local = 1.7653114e-09, global = -3.3664794e-11, cumulative = 3.9835983e-10
smoothSolver:  Solving for omega, Initial residual = 0.026942439, Final residual = 0.0018601624, No Iterations 3
smoothSolver:  Solving for k, Initial residual = 0.0075554962, Final residual = 0.00046273516, No Iterations 3
ExecutionTime = 341.898 s  ClockTime = 342 s

forces forces write:
    Sum of forces
        Total    : (0.04217837 3.6745332 -0.1363888)
        Pressure : (0.038623575 3.671843 -0.13659935)
        Viscous  : (0.0035547954 0.0026902263 0.0002105449)
    Sum of moments
        Total    : (-2.3349152 0.086204476 0.45179558)
        Pressure : (-2.333692 0.084204837 0.44955373)
        Viscous  : (-0.0012231652 0.001999639 0.0022418429)


Time = 37

smoothSolver:  Solving for Ux, Initial residual = 0.0011589463, Final residual = 3.1837111e-05, No Iterations 2
smoothSolver:  Solving for Uy, Initial residual = 0.00088791069, Final residual = 2.6041563e-05, No Iterations 2
smoothSolver:  Solving for Uz, Initial residual = 0.0051775619, Final residual = 0.00016602876, No Iterations 2
GAMG:  Solving for p, Initial residual = 0.016930468, Final residual = 0.0001212715, No Iterations 3
GAMG:  Solving for p, Initial residual = 0.00092727747, Final residual = 4.9515598e-06, No Iterations 4
GAMG:  Solving for p, Initial residual = 0.0001161796, Final residual = 6.901565e-07, No Iterations 5
GAMG:  Solving for p, Initial residual = 2.5112982e-05, Final residual = 2.0500597e-07, No Iterations 4
GAMG:  Solving for p, Initial residual = 5.9233763e-06, Final residual = 3.5149439e-08, No Iterations 5
GAMG:  Solving for p, Initial residual = 1.6088085e-06, Final residual = 1.1707127e-08, No Iterations 4
time step continuity errors : sum local = 2.0260677e-09, global = -4.6161899e-11, cumulative = 3.5219793e-10
smoothSolver:  Solving for omega, Initial residual = 0.025968054, Final residual = 0.0017925858, No Iterations 3
smoothSolver:  Solving for k, Initial residual = 0.0073710566, Final residual = 0.00045098228, No Iterations 3
ExecutionTime = 349.967 s  ClockTime = 350 s

forces forces write:
    Sum of forces
        Total    : (0.042642785 3.6750554 -0.13587839)
        Pressure : (0.038979319 3.6724184 -0.13612196)
        Viscous  : (0.0036634661 0.0026369995 0.00024356606)
    Sum of moments
        Total    : (-2.3352678 0.086404312 0.4513061)
        Pressure : (-2.3340981 0.084319633 0.44903292)
        Viscous  : (-0.0011696988 0.0020846787 0.0022731844)


Time = 38

smoothSolver:  Solving for Ux, Initial residual = 0.0011479563, Final residual = 3.1553233e-05, No Iterations 2
smoothSolver:  Solving for Uy, Initial residual = 0.00085468147, Final residual = 2.4945697e-05, No Iterations 2
smoothSolver:  Solving for Uz, Initial residual = 0.0051406539, Final residual = 0.00016468453, No Iterations 2
GAMG:  Solving for p, Initial residual = 0.015982676, Final residual = 0.00011107538, No Iterations 3
GAMG:  Solving for p, Initial residual = 0.00088456323, Final residual = 4.9307253e-06, No Iterations 4
GAMG:  Solving for p, Initial residual = 0.00011263823, Final residual = 6.8344062e-07, No Iterations 5
GAMG:  Solving for p, Initial residual = 2.4451727e-05, Final residual = 2.0119848e-07, No Iterations 4
GAMG:  Solving for p, Initial residual = 5.7400122e-06, Final residual = 3.483838e-08, No Iterations 5
GAMG:  Solving for p, Initial residual = 1.5432267e-06, Final residual = 1.1462638e-08, No Iterations 4
time step continuity errors : sum local = 1.9812632e-09, global = -5.0646766e-11, cumulative = 3.0155116e-10
smoothSolver:  Solving for omega, Initial residual = 0.025047556, Final residual = 0.0017287263, No Iterations 3
smoothSolver:  Solving for k, Initial residual = 0.0071971735, Final residual = 0.00043990212, No Iterations 3
ExecutionTime = 358.146 s  ClockTime = 359 s

forces forces write:
    Sum of forces
        Total    : (0.04296262 3.6746505 -0.1354518)
        Pressure : (0.039173319 3.6720807 -0.1357375)
        Viscous  : (0.003789301 0.0025697814 0.0002856977)
    Sum of moments
        Total    : (-2.3350599 0.086587159 0.45059953)
        Pressure : (-2.3339541 0.084404761 0.44829148)
        Viscous  : (-0.0011057386 0.002182398 0.0023080452)


Time = 39

smoothSolver:  Solving for Ux, Initial residual = 0.0011387301, Final residual = 3.1313001e-05, No Iterations 2
smoothSolver:  Solving for Uy, Initial residual = 0.00083651251, Final residual = 2.4337857e-05, No Iterations 2
smoothSolver:  Solving for Uz, Initial residual = 0.0050976767, Final residual = 0.00016307771, No Iterations 2
GAMG:  Solving for p, Initial residual = 0.015085757, Final residual = 0.00010139557, No Iterations 3
GAMG:  Solving for p, Initial residual = 0.00083519988, Final residual = 5.6307637e-06, No Iterations 4
GAMG:  Solving for p, Initial residual = 0.0001082308, Final residual = 7.7317632e-07, No Iterations 5
GAMG:  Solving for p, Initial residual = 2.3554393e-05, Final residual = 2.1883834e-07, No Iterations 4
GAMG:  Solving for p, Initial residual = 5.5190098e-06, Final residual = 3.7446312e-08, No Iterations 5
GAMG:  Solving for p, Initial residual = 1.4844356e-06, Final residual = 1.2016667e-08, No Iterations 4
time step continuity errors : sum local = 2.0754955e-09, global = -5.1132078e-11, cumulative = 2.5041909e-10
smoothSolver:  Solving for omega, Initial residual = 0.024176791, Final residual = 0.001668309, No Iterations 3
smoothSolver:  Solving for k, Initial residual = 0.0070330006, Final residual = 0.00042944217, No Iterations 3
ExecutionTime = 366.406 s  ClockTime = 367 s

forces forces write:
    Sum of forces
        Total    : (0.043360079 3.6745259 -0.13504694)
        Pressure : (0.039428949 3.6720382 -0.13538277)
        Viscous  : (0.00393113 0.0024876933 0.00033583431)
    Sum of moments
        Total    : (-2.3350923 0.086827584 0.45047413)
        Pressure : (-2.3340607 0.084537524 0.44812792)
        Viscous  : (-0.001031584 0.0022900603 0.0023462088)


Time = 40

smoothSolver:  Solving for Ux, Initial residual = 0.0011299042, Final residual = 3.1123108e-05, No Iterations 2
smoothSolver:  Solving for Uy, Initial residual = 0.00082549177, Final residual = 2.4022393e-05, No Iterations 2
smoothSolver:  Solving for Uz, Initial residual = 0.0050476229, Final residual = 0.0001610947, No Iterations 2
GAMG:  Solving for p, Initial residual = 0.014318518, Final residual = 9.7296984e-05, No Iterations 3
GAMG:  Solving for p, Initial residual = 0.00078255508, Final residual = 5.9294173e-06, No Iterations 4
GAMG:  Solving for p, Initial residual = 0.00010341364, Final residual = 7.9687867e-07, No Iterations 5
GAMG:  Solving for p, Initial residual = 2.2724207e-05, Final residual = 2.2300608e-07, No Iterations 4
GAMG:  Solving for p, Initial residual = 5.3827268e-06, Final residual = 3.8169401e-08, No Iterations 5
GAMG:  Solving for p, Initial residual = 1.4658988e-06, Final residual = 1.2228988e-08, No Iterations 4
time step continuity errors : sum local = 2.1112138e-09, global = -4.9619684e-11, cumulative = 2.007994e-10
smoothSolver:  Solving for omega, Initial residual = 0.023352049, Final residual = 0.001611086, No Iterations 3
smoothSolver:  Solving for k, Initial residual = 0.0068777763, Final residual = 0.00041955445, No Iterations 3
ExecutionTime = 374.595 s  ClockTime = 375 s

forces forces write:
    Sum of forces
        Total    : (0.043956066 3.6752826 -0.13458101)
        Pressure : (0.039863119 3.6728954 -0.13497491)
        Viscous  : (0.0040929475 0.0023872412 0.00039390091)
    Sum of moments
        Total    : (-2.3357088 0.087146465 0.45109735)
        Pressure : (-2.3347638 0.084736013 0.44870912)
        Viscous  : (-0.00094505207 0.0024104527 0.0023882297)


Time = 41

smoothSolver:  Solving for Ux, Initial residual = 0.0011213353, Final residual = 3.0990439e-05, No Iterations 2
smoothSolver:  Solving for Uy, Initial residual = 0.00081240322, Final residual = 2.3647365e-05, No Iterations 2
smoothSolver:  Solving for Uz, Initial residual = 0.0049966275, Final residual = 0.00015900112, No Iterations 2
GAMG:  Solving for p, Initial residual = 0.013659688, Final residual = 8.6860375e-05, No Iterations 3
GAMG:  Solving for p, Initial residual = 0.00072900717, Final residual = 5.7751312e-06, No Iterations 4
GAMG:  Solving for p, Initial residual = 9.9153451e-05, Final residual = 7.7619011e-07, No Iterations 5
GAMG:  Solving for p, Initial residual = 2.1824364e-05, Final residual = 1.2822348e-07, No Iterations 5
GAMG:  Solving for p, Initial residual = 5.1300451e-06, Final residual = 4.499011e-08, No Iterations 4
GAMG:  Solving for p, Initial residual = 1.43434e-06, Final residual = 1.4005466e-08, No Iterations 4
time step continuity errors : sum local = 2.4167626e-09, global = -5.5978037e-11, cumulative = 1.4482137e-10
smoothSolver:  Solving for omega, Initial residual = 0.022570241, Final residual = 0.0015568354, No Iterations 3
smoothSolver:  Solving for k, Initial residual = 0.0067309364, Final residual = 0.00041020137, No Iterations 3
ExecutionTime = 382.875 s  ClockTime = 383 s

forces forces write:
    Sum of forces
        Total    : (0.044709395 3.6766771 -0.13401309)
        Pressure : (0.040438457 3.6744084 -0.13447053)
        Viscous  : (0.0042709375 0.0022686836 0.000457436)
    Sum of moments
        Total    : (-2.3366914 0.087502447 0.45206469)
        Pressure : (-2.3358442 0.084963517 0.44963079)
        Viscous  : (-0.00084712676 0.0025389295 0.0024339023)


Time = 42

smoothSolver:  Solving for Ux, Initial residual = 0.0011129544, Final residual = 3.0879238e-05, No Iterations 2
smoothSolver:  Solving for Uy, Initial residual = 0.00079566874, Final residual = 2.310963e-05, No Iterations 2
smoothSolver:  Solving for Uz, Initial residual = 0.0049505463, Final residual = 0.00015700197, No Iterations 2
GAMG:  Solving for p, Initial residual = 0.013028839, Final residual = 7.6991302e-05, No Iterations 3
GAMG:  Solving for p, Initial residual = 0.00069347032, Final residual = 5.299733e-06, No Iterations 4
GAMG:  Solving for p, Initial residual = 9.6813182e-05, Final residual = 7.3767246e-07, No Iterations 5
GAMG:  Solving for p, Initial residual = 2.1333591e-05, Final residual = 1.2417827e-07, No Iterations 5
GAMG:  Solving for p, Initial residual = 5.0519502e-06, Final residual = 4.4342414e-08, No Iterations 4
GAMG:  Solving for p, Initial residual = 1.4104895e-06, Final residual = 1.4016385e-08, No Iterations 4
time step continuity errors : sum local = 2.4166975e-09, global = -5.5120312e-11, cumulative = 8.9701054e-11
smoothSolver:  Solving for omega, Initial residual = 0.021828335, Final residual = 0.0015053486, No Iterations 3
smoothSolver:  Solving for k, Initial residual = 0.0065918603, Final residual = 0.00040134675, No Iterations 3
ExecutionTime = 390.964 s  ClockTime = 391 s

forces forces write:
    Sum of forces
        Total    : (0.045504012 3.6780309 -0.13336125)
        Pressure : (0.041038928 3.6758999 -0.13388664)
        Viscous  : (0.0044650843 0.0021310145 0.00052538456)
    Sum of moments
        Total    : (-2.3375744 0.087848329 0.45284384)
        Pressure : (-2.3368371 0.085173442 0.45036028)
        Viscous  : (-0.00073731806 0.0026748864 0.0024835626)


Time = 43

smoothSolver:  Solving for Ux, Initial residual = 0.0011051511, Final residual = 3.0775072e-05, No Iterations 2
smoothSolver:  Solving for Uy, Initial residual = 0.00077682853, Final residual = 2.2503178e-05, No Iterations 2
smoothSolver:  Solving for Uz, Initial residual = 0.0049078266, Final residual = 0.00015509115, No Iterations 2
GAMG:  Solving for p, Initial residual = 0.012451186, Final residual = 7.5094445e-05, No Iterations 3
GAMG:  Solving for p, Initial residual = 0.00066781908, Final residual = 4.9015217e-06, No Iterations 4
GAMG:  Solving for p, Initial residual = 9.4658084e-05, Final residual = 6.9995222e-07, No Iterations 5
GAMG:  Solving for p, Initial residual = 2.0878171e-05, Final residual = 2.0665531e-07, No Iterations 4
GAMG:  Solving for p, Initial residual = 5.048307e-06, Final residual = 3.6204424e-08, No Iterations 5
GAMG:  Solving for p, Initial residual = 1.3740636e-06, Final residual = 1.2195825e-08, No Iterations 4
time step continuity errors : sum local = 2.1006333e-09, global = -4.6614922e-11, cumulative = 4.3086131e-11
smoothSolver:  Solving for omega, Initial residual = 0.021123692, Final residual = 0.0014564467, No Iterations 3
smoothSolver:  Solving for k, Initial residual = 0.0064599758, Final residual = 0.0003929556, No Iterations 3
ExecutionTime = 399.107 s  ClockTime = 399 s

forces forces write:
    Sum of forces
        Total    : (0.046254952 3.6788376 -0.13267672)
        Pressure : (0.041578502 3.6768631 -0.13327539)
        Viscous  : (0.00467645 0.0019745679 0.00059866753)
    Sum of moments
        Total    : (-2.3380528 0.088167351 0.45318388)
        Pressure : (-2.3374366 0.085348889 0.4506466)
        Viscous  : (-0.00061624136 0.0028184619 0.0025372772)


Time = 44

smoothSolver:  Solving for Ux, Initial residual = 0.0010979408, Final residual = 3.0662491e-05, No Iterations 2
smoothSolver:  Solving for Uy, Initial residual = 0.00075875648, Final residual = 2.191741e-05, No Iterations 2
smoothSolver:  Solving for Uz, Initial residual = 0.0048648904, Final residual = 0.00015315856, No Iterations 2
GAMG:  Solving for p, Initial residual = 0.011944373, Final residual = 7.3265069e-05, No Iterations 3
GAMG:  Solving for p, Initial residual = 0.00064269202, Final residual = 4.8442616e-06, No Iterations 4
GAMG:  Solving for p, Initial residual = 9.1611237e-05, Final residual = 6.9960534e-07, No Iterations 5
GAMG:  Solving for p, Initial residual = 2.0410578e-05, Final residual = 1.2029993e-07, No Iterations 5
GAMG:  Solving for p, Initial residual = 4.8569501e-06, Final residual = 4.354514e-08, No Iterations 4
GAMG:  Solving for p, Initial residual = 1.3526461e-06, Final residual = 7.893096e-09, No Iterations 5
time step continuity errors : sum local = 1.3579851e-09, global = -2.9023456e-11, cumulative = 1.4062675e-11
smoothSolver:  Solving for omega, Initial residual = 0.020454055, Final residual = 0.0014099782, No Iterations 3
smoothSolver:  Solving for k, Initial residual = 0.0063348553, Final residual = 0.00038499816, No Iterations 3
ExecutionTime = 408.233 s  ClockTime = 409 s

forces forces write:
    Sum of forces
        Total    : (0.046957149 3.6790613 -0.13200398)
        Pressure : (0.042054032 3.6772616 -0.13268196)
        Viscous  : (0.0049031171 0.0017996449 0.00067797865)
    Sum of moments
        Total    : (-2.3381481 0.088473823 0.45320904)
        Pressure : (-2.3376632 0.085506905 0.45061433)
        Viscous  : (-0.0004848695 0.0029669172 0.0025947117)


Time = 45

smoothSolver:  Solving for Ux, Initial residual = 0.0010913139, Final residual = 3.0579119e-05, No Iterations 2
smoothSolver:  Solving for Uy, Initial residual = 0.00074533779, Final residual = 2.1494149e-05, No Iterations 2
smoothSolver:  Solving for Uz, Initial residual = 0.0048183236, Final residual = 0.00015103253, No Iterations 2
GAMG:  Solving for p, Initial residual = 0.011472972, Final residual = 6.8078868e-05, No Iterations 3
GAMG:  Solving for p, Initial residual = 0.00061755349, Final residual = 4.99543e-06, No Iterations 4
GAMG:  Solving for p, Initial residual = 8.9211123e-05, Final residual = 7.2215705e-07, No Iterations 5
GAMG:  Solving for p, Initial residual = 2.0069174e-05, Final residual = 1.2213276e-07, No Iterations 5
GAMG:  Solving for p, Initial residual = 4.778767e-06, Final residual = 4.4224853e-08, No Iterations 4
[...]
smoothSolver:  Solving for k, Initial residual = 0.0010894777, Final residual = 5.3976133e-05, No Iterations 3
ExecutionTime = 3587.084 s  ClockTime = 3587 s

forces forces write:
    Sum of forces
        Total    : (0.092867498 3.7051166 -0.065910735)
        Pressure : (0.07056555 3.7219175 -0.077603717)
        Viscous  : (0.022301948 -0.016800902 0.011692982)
    Sum of moments
        Total    : (-2.3437018 0.075976435 0.56001684)
        Pressure : (-2.3547191 0.066790769 0.50998591)
        Viscous  : (0.01101722 0.0091856661 0.050030931)


Time = 423

smoothSolver:  Solving for Ux, Initial residual = 7.2049e-05, Final residual = 2.4190976e-06, No Iterations 2
smoothSolver:  Solving for Uy, Initial residual = 5.0670966e-05, Final residual = 1.9146609e-06, No Iterations 2
smoothSolver:  Solving for Uz, Initial residual = 0.0001409691, Final residual = 5.0684544e-06, No Iterations 2
GAMG:  Solving for p, Initial residual = 0.00030582256, Final residual = 2.9821422e-06, No Iterations 3
GAMG:  Solving for p, Initial residual = 2.6120598e-05, Final residual = 2.5834739e-07, No Iterations 4
GAMG:  Solving for p, Initial residual = 3.6773798e-06, Final residual = 2.3687754e-08, No Iterations 5
GAMG:  Solving for p, Initial residual = 7.198975e-07, Final residual = 6.6423801e-09, No Iterations 4
GAMG:  Solving for p, Initial residual = 1.6874984e-07, Final residual = 5.4977271e-09, No Iterations 2
GAMG:  Solving for p, Initial residual = 4.5083505e-08, Final residual = 5.518555e-09, No Iterations 1
time step continuity errors : sum local = 5.4945815e-10, global = -1.387111e-11, cumulative = -9.6108432e-10
smoothSolver:  Solving for omega, Initial residual = 0.00013640201, Final residual = 6.9260005e-06, No Iterations 3
smoothSolver:  Solving for k, Initial residual = 0.0010808799, Final residual = 5.3527137e-05, No Iterations 3
ExecutionTime = 3598.137 s  ClockTime = 3599 s

forces forces write:
    Sum of forces
        Total    : (0.092919211 3.7051146 -0.065883973)
        Pressure : (0.070571054 3.7219543 -0.077606205)
        Viscous  : (0.022348157 -0.016839723 0.011722231)
    Sum of moments
        Total    : (-2.3436844 0.075992597 0.56005735)
        Pressure : (-2.3547262 0.066777087 0.51000014)
        Viscous  : (0.011041876 0.0092155097 0.050057219)


Time = 424

smoothSolver:  Solving for Ux, Initial residual = 7.170962e-05, Final residual = 2.4081609e-06, No Iterations 2
smoothSolver:  Solving for Uy, Initial residual = 5.0366721e-05, Final residual = 1.9031811e-06, No Iterations 2
smoothSolver:  Solving for Uz, Initial residual = 0.00014005204, Final residual = 5.0353317e-06, No Iterations 2
GAMG:  Solving for p, Initial residual = 0.00030434471, Final residual = 2.9662312e-06, No Iterations 3
GAMG:  Solving for p, Initial residual = 2.6034271e-05, Final residual = 2.5634939e-07, No Iterations 4
GAMG:  Solving for p, Initial residual = 3.686348e-06, Final residual = 2.3168424e-08, No Iterations 5
GAMG:  Solving for p, Initial residual = 7.2212384e-07, Final residual = 6.4132581e-09, No Iterations 4
GAMG:  Solving for p, Initial residual = 1.6884559e-07, Final residual = 5.3312959e-09, No Iterations 2
GAMG:  Solving for p, Initial residual = 4.5022711e-08, Final residual = 5.4061709e-09, No Iterations 1
time step continuity errors : sum local = 5.3771265e-10, global = -1.3254114e-11, cumulative = -9.7433843e-10
smoothSolver:  Solving for omega, Initial residual = 0.0001355761, Final residual = 6.8834735e-06, No Iterations 3
smoothSolver:  Solving for k, Initial residual = 0.0010723154, Final residual = 5.3080184e-05, No Iterations 3
ExecutionTime = 3611.711 s  ClockTime = 3612 s

forces forces write:
    Sum of forces
        Total    : (0.092970781 3.7051116 -0.06585748)
        Pressure : (0.07057643 3.7219899 -0.077608834)
        Viscous  : (0.022394351 -0.016878394 0.011751354)
    Sum of moments
        Total    : (-2.3436662 0.076009016 0.56009711)
        Pressure : (-2.3547329 0.066763674 0.51001359)
        Viscous  : (0.011066671 0.0092453416 0.050083516)


Time = 425

smoothSolver:  Solving for Ux, Initial residual = 7.1373058e-05, Final residual = 2.3973096e-06, No Iterations 2
smoothSolver:  Solving for Uy, Initial residual = 5.0065552e-05, Final residual = 1.8917966e-06, No Iterations 2
smoothSolver:  Solving for Uz, Initial residual = 0.0001391406, Final residual = 5.0023639e-06, No Iterations 2
GAMG:  Solving for p, Initial residual = 0.00030298102, Final residual = 2.9485419e-06, No Iterations 3
GAMG:  Solving for p, Initial residual = 2.5836924e-05, Final residual = 2.5312811e-07, No Iterations 4
GAMG:  Solving for p, Initial residual = 3.6612643e-06, Final residual = 2.2940142e-08, No Iterations 5
GAMG:  Solving for p, Initial residual = 7.1361824e-07, Final residual = 6.4706481e-09, No Iterations 4
GAMG:  Solving for p, Initial residual = 1.6762425e-07, Final residual = 5.3467589e-09, No Iterations 2
GAMG:  Solving for p, Initial residual = 4.4568464e-08, Final residual = 5.4184311e-09, No Iterations 1
time step continuity errors : sum local = 5.3837945e-10, global = -1.3508911e-11, cumulative = -9.8784734e-10
smoothSolver:  Solving for omega, Initial residual = 0.00013476429, Final residual = 6.8417361e-06, No Iterations 3
smoothSolver:  Solving for k, Initial residual = 0.0010638099, Final residual = 5.2636535e-05, No Iterations 3
ExecutionTime = 3620.601 s  ClockTime = 3621 s

forces forces write:
    Sum of forces
        Total    : (0.093022359 3.7051085 -0.065831227)
        Pressure : (0.07058176 3.7220252 -0.077611588)
        Viscous  : (0.022440599 -0.016916762 0.011780361)
    Sum of moments
        Total    : (-2.3436484 0.076025806 0.56013677)
        Pressure : (-2.3547399 0.066750577 0.51002681)
        Viscous  : (0.011091475 0.009275229 0.050109952)


Time = 426

smoothSolver:  Solving for Ux, Initial residual = 7.1039685e-05, Final residual = 2.3865724e-06, No Iterations 2
smoothSolver:  Solving for Uy, Initial residual = 4.9764115e-05, Final residual = 1.8804797e-06, No Iterations 2
smoothSolver:  Solving for Uz, Initial residual = 0.00013823394, Final residual = 4.969615e-06, No Iterations 2
GAMG:  Solving for p, Initial residual = 0.000301579, Final residual = 2.9304981e-06, No Iterations 3
GAMG:  Solving for p, Initial residual = 2.5617005e-05, Final residual = 2.5054321e-07, No Iterations 4
GAMG:  Solving for p, Initial residual = 3.6232484e-06, Final residual = 2.3019837e-08, No Iterations 5
GAMG:  Solving for p, Initial residual = 7.0777811e-07, Final residual = 6.3674498e-09, No Iterations 4
GAMG:  Solving for p, Initial residual = 1.6596067e-07, Final residual = 5.3285501e-09, No Iterations 2
GAMG:  Solving for p, Initial residual = 4.4171723e-08, Final residual = 5.3595618e-09, No Iterations 1
time step continuity errors : sum local = 5.3198746e-10, global = -1.3200715e-11, cumulative = -1.0010481e-09
smoothSolver:  Solving for omega, Initial residual = 0.00013396662, Final residual = 6.8007675e-06, No Iterations 3
smoothSolver:  Solving for k, Initial residual = 0.001055361, Final residual = 5.2196128e-05, No Iterations 3
ExecutionTime = 3628.621 s  ClockTime = 3629 s

forces forces write:
    Sum of forces
        Total    : (0.093073785 3.7051043 -0.065805205)
        Pressure : (0.070586954 3.7220593 -0.077614448)
        Viscous  : (0.022486831 -0.016955012 0.011809243)
    Sum of moments
        Total    : (-2.34363 0.076042806 0.5601757)
        Pressure : (-2.3547464 0.066737698 0.51003931)
        Viscous  : (0.011116434 0.0093051078 0.050136396)


Time = 427

smoothSolver:  Solving for Ux, Initial residual = 7.0706758e-05, Final residual = 2.3759124e-06, No Iterations 2
smoothSolver:  Solving for Uy, Initial residual = 4.9462604e-05, Final residual = 1.8691631e-06, No Iterations 2
smoothSolver:  Solving for Uz, Initial residual = 0.00013733313, Final residual = 4.9370713e-06, No Iterations 2
GAMG:  Solving for p, Initial residual = 0.00030037578, Final residual = 2.9139125e-06, No Iterations 3
GAMG:  Solving for p, Initial residual = 2.5440392e-05, Final residual = 2.4809969e-07, No Iterations 4
GAMG:  Solving for p, Initial residual = 3.5872537e-06, Final residual = 2.2674862e-08, No Iterations 5
GAMG:  Solving for p, Initial residual = 7.0200674e-07, Final residual = 6.2648929e-09, No Iterations 4
GAMG:  Solving for p, Initial residual = 1.6458064e-07, Final residual = 5.2471315e-09, No Iterations 2
GAMG:  Solving for p, Initial residual = 4.3862466e-08, Final residual = 5.2659037e-09, No Iterations 1
time step continuity errors : sum local = 5.2216218e-10, global = -1.2918578e-11, cumulative = -1.0139666e-09
smoothSolver:  Solving for omega, Initial residual = 0.00013318236, Final residual = 6.7605193e-06, No Iterations 3
smoothSolver:  Solving for k, Initial residual = 0.0010469676, Final residual = 5.1758844e-05, No Iterations 3
ExecutionTime = 3636.667 s  ClockTime = 3637 s

forces forces write:
    Sum of forces
        Total    : (0.093125082 3.7051003 -0.065779526)
        Pressure : (0.070591991 3.7220932 -0.07761749)
        Viscous  : (0.02253309 -0.016992918 0.011837964)
    Sum of moments
        Total    : (-2.3436119 0.076060074 0.56021458)
        Pressure : (-2.3547532 0.066725052 0.51005156)
        Viscous  : (0.011141391 0.0093350218 0.050163015)


Time = 428

smoothSolver:  Solving for Ux, Initial residual = 7.0377814e-05, Final residual = 2.3653769e-06, No Iterations 2
smoothSolver:  Solving for Uy, Initial residual = 4.9163012e-05, Final residual = 1.8579135e-06, No Iterations 2
smoothSolver:  Solving for Uz, Initial residual = 0.00013643869, Final residual = 4.9047389e-06, No Iterations 2
GAMG:  Solving for p, Initial residual = 0.0002992526, Final residual = 2.8968204e-06, No Iterations 3
GAMG:  Solving for p, Initial residual = 2.5271838e-05, Final residual = 2.4556217e-07, No Iterations 4
GAMG:  Solving for p, Initial residual = 3.5569387e-06, Final residual = 2.2355454e-08, No Iterations 5
GAMG:  Solving for p, Initial residual = 6.9568685e-07, Final residual = 6.2151506e-09, No Iterations 4
GAMG:  Solving for p, Initial residual = 1.6291106e-07, Final residual = 5.2010399e-09, No Iterations 2
GAMG:  Solving for p, Initial residual = 4.3310681e-08, Final residual = 5.227441e-09, No Iterations 1
time step continuity errors : sum local = 5.1782696e-10, global = -1.2908716e-11, cumulative = -1.0268754e-09
smoothSolver:  Solving for omega, Initial residual = 0.00013241168, Final residual = 6.7210175e-06, No Iterations 3
smoothSolver:  Solving for k, Initial residual = 0.0010386011, Final residual = 5.1323265e-05, No Iterations 3
ExecutionTime = 3644.805 s  ClockTime = 3645 s

forces forces write:
    Sum of forces
        Total    : (0.09317605 3.7050954 -0.065754223)
        Pressure : (0.070596756 3.722126 -0.077620746)
        Viscous  : (0.022579294 -0.017030614 0.011866523)
    Sum of moments
        Total    : (-2.3435932 0.07607747 0.56025267)
        Pressure : (-2.3547597 0.066712572 0.51006301)
        Viscous  : (0.011166472 0.0093648984 0.050189663)


Time = 429

smoothSolver:  Solving for Ux, Initial residual = 7.005105e-05, Final residual = 2.354893e-06, No Iterations 2
smoothSolver:  Solving for Uy, Initial residual = 4.8866763e-05, Final residual = 1.8467337e-06, No Iterations 2
smoothSolver:  Solving for Uz, Initial residual = 0.00013555024, Final residual = 4.8725456e-06, No Iterations 2
GAMG:  Solving for p, Initial residual = 0.00029817592, Final residual = 2.8775901e-06, No Iterations 3
GAMG:  Solving for p, Initial residual = 2.5146126e-05, Final residual = 2.4278225e-07, No Iterations 4
GAMG:  Solving for p, Initial residual = 3.5292308e-06, Final residual = 2.1932038e-08, No Iterations 5
GAMG:  Solving for p, Initial residual = 6.8912813e-07, Final residual = 6.132416e-09, No Iterations 4
GAMG:  Solving for p, Initial residual = 1.6124977e-07, Final residual = 5.1235341e-09, No Iterations 2
GAMG:  Solving for p, Initial residual = 4.2803754e-08, Final residual = 5.15619e-09, No Iterations 1
time step continuity errors : sum local = 5.1025886e-10, global = -1.2677811e-11, cumulative = -1.0395532e-09
smoothSolver:  Solving for omega, Initial residual = 0.00013165398, Final residual = 6.6822129e-06, No Iterations 3
smoothSolver:  Solving for k, Initial residual = 0.001030291, Final residual = 5.089084e-05, No Iterations 3
ExecutionTime = 3653.029 s  ClockTime = 3653 s

forces forces write:
    Sum of forces
        Total    : (0.093226885 3.7050904 -0.065729305)
        Pressure : (0.070601339 3.7221584 -0.077624217)
        Viscous  : (0.022625545 -0.017068034 0.011894912)
    Sum of moments
        Total    : (-2.3435747 0.076095206 0.56029068)
        Pressure : (-2.3547663 0.066700349 0.5100742)
        Viscous  : (0.011191589 0.0093948566 0.050216472)


Time = 430

smoothSolver:  Solving for Ux, Initial residual = 6.9728698e-05, Final residual = 2.3445136e-06, No Iterations 2
smoothSolver:  Solving for Uy, Initial residual = 4.8571892e-05, Final residual = 1.835599e-06, No Iterations 2
smoothSolver:  Solving for Uz, Initial residual = 0.00013466826, Final residual = 4.8405684e-06, No Iterations 2
GAMG:  Solving for p, Initial residual = 0.00029706727, Final residual = 2.8583988e-06, No Iterations 3
GAMG:  Solving for p, Initial residual = 2.5052671e-05, Final residual = 2.3981781e-07, No Iterations 4
GAMG:  Solving for p, Initial residual = 3.5123268e-06, Final residual = 2.1697226e-08, No Iterations 5
GAMG:  Solving for p, Initial residual = 6.878618e-07, Final residual = 6.111532e-09, No Iterations 4
GAMG:  Solving for p, Initial residual = 1.6165841e-07, Final residual = 5.1090534e-09, No Iterations 2
GAMG:  Solving for p, Initial residual = 4.2826255e-08, Final residual = 5.1486846e-09, No Iterations 1
time step continuity errors : sum local = 5.0901047e-10, global = -1.2682791e-11, cumulative = -1.052236e-09
smoothSolver:  Solving for omega, Initial residual = 0.0001309095, Final residual = 6.6441154e-06, No Iterations 3
smoothSolver:  Solving for k, Initial residual = 0.0010220381, Final residual = 5.0461608e-05, No Iterations 3
ExecutionTime = 3662.919 s  ClockTime = 3663 s

forces forces write:
    Sum of forces
        Total    : (0.093277478 3.7050844 -0.065704675)
        Pressure : (0.070605704 3.7221898 -0.077627852)
        Viscous  : (0.022671774 -0.017105328 0.011923177)
    Sum of moments
        Total    : (-2.3435557 0.076113085 0.56032804)
        Pressure : (-2.3547725 0.066688277 0.51008472)
        Viscous  : (0.011216873 0.0094248075 0.050243319)


Time = 431

smoothSolver:  Solving for Ux, Initial residual = 6.9409209e-05, Final residual = 2.3341929e-06, No Iterations 2
smoothSolver:  Solving for Uy, Initial residual = 4.8279557e-05, Final residual = 1.8245402e-06, No Iterations 2
smoothSolver:  Solving for Uz, Initial residual = 0.00013379267, Final residual = 4.8087543e-06, No Iterations 2
GAMG:  Solving for p, Initial residual = 0.00029593756, Final residual = 2.8389844e-06, No Iterations 3
GAMG:  Solving for p, Initial residual = 2.4943728e-05, Final residual = 2.370414e-07, No Iterations 4
GAMG:  Solving for p, Initial residual = 3.4959909e-06, Final residual = 2.1468734e-08, No Iterations 5
GAMG:  Solving for p, Initial residual = 6.8501355e-07, Final residual = 6.0498384e-09, No Iterations 4
GAMG:  Solving for p, Initial residual = 1.6099242e-07, Final residual = 5.0701415e-09, No Iterations 2
GAMG:  Solving for p, Initial residual = 4.2674871e-08, Final residual = 5.1041213e-09, No Iterations 1
time step continuity errors : sum local = 5.0410754e-10, global = -1.2507732e-11, cumulative = -1.0647437e-09
smoothSolver:  Solving for omega, Initial residual = 0.00013017749, Final residual = 6.606712e-06, No Iterations 3
smoothSolver:  Solving for k, Initial residual = 0.0010138426, Final residual = 5.0035579e-05, No Iterations 3
ExecutionTime = 3671.963 s  ClockTime = 3672 s

forces forces write:
    Sum of forces
        Total    : (0.093327988 3.7050784 -0.06568029)
        Pressure : (0.070609948 3.7222208 -0.077631607)
        Viscous  : (0.02271804 -0.017142369 0.011951318)
    Sum of moments
        Total    : (-2.3435368 0.076131205 0.56036542)
        Pressure : (-2.354779 0.066676386 0.51009511)
        Viscous  : (0.011242184 0.0094548188 0.050270309)


Time = 432

smoothSolver:  Solving for Ux, Initial residual = 6.9092804e-05, Final residual = 2.3239693e-06, No Iterations 2
smoothSolver:  Solving for Uy, Initial residual = 4.7989575e-05, Final residual = 1.8135425e-06, No Iterations 2
smoothSolver:  Solving for Uz, Initial residual = 0.00013292154, Final residual = 4.7771509e-06, No Iterations 2
GAMG:  Solving for p, Initial residual = 0.00029484823, Final residual = 2.820192e-06, No Iterations 3
GAMG:  Solving for p, Initial residual = 2.4851588e-05, Final residual = 2.3435604e-07, No Iterations 4
GAMG:  Solving for p, Initial residual = 3.4884081e-06, Final residual = 2.1276032e-08, No Iterations 5
GAMG:  Solving for p, Initial residual = 6.8358539e-07, Final residual = 5.9838433e-09, No Iterations 4
GAMG:  Solving for p, Initial residual = 1.6024571e-07, Final residual = 5.0313693e-09, No Iterations 2
GAMG:  Solving for p, Initial residual = 4.2552488e-08, Final residual = 5.0634136e-09, No Iterations 1
time step continuity errors : sum local = 4.9959714e-10, global = -1.2406942e-11, cumulative = -1.0771506e-09
smoothSolver:  Solving for omega, Initial residual = 0.00012945857, Final residual = 6.5699761e-06, No Iterations 3
smoothSolver:  Solving for k, Initial residual = 0.0010056834, Final residual = 4.9611708e-05, No Iterations 3
ExecutionTime = 3680.149 s  ClockTime = 3681 s

forces forces write:
    Sum of forces
        Total    : (0.093378254 3.7050714 -0.065656164)
        Pressure : (0.070614023 3.7222507 -0.077635436)
        Viscous  : (0.022764231 -0.017179301 0.011979272)
    Sum of moments
        Total    : (-2.3435172 0.076149459 0.56040213)
        Pressure : (-2.3547849 0.066664615 0.51010485)
        Viscous  : (0.011267659 0.0094848443 0.05029728)


Time = 433

smoothSolver:  Solving for Ux, Initial residual = 6.8778225e-05, Final residual = 2.3138019e-06, No Iterations 2
smoothSolver:  Solving for Uy, Initial residual = 4.7704103e-05, Final residual = 1.8026297e-06, No Iterations 2
smoothSolver:  Solving for Uz, Initial residual = 0.0001320553, Final residual = 4.745738e-06, No Iterations 2
GAMG:  Solving for p, Initial residual = 0.00029373464, Final residual = 2.8011223e-06, No Iterations 3
GAMG:  Solving for p, Initial residual = 2.4741296e-05, Final residual = 2.3185986e-07, No Iterations 4
GAMG:  Solving for p, Initial residual = 3.472936e-06, Final residual = 2.0986365e-08, No Iterations 5
GAMG:  Solving for p, Initial residual = 6.8060105e-07, Final residual = 5.9182606e-09, No Iterations 4
GAMG:  Solving for p, Initial residual = 1.5987003e-07, Final residual = 4.9796388e-09, No Iterations 2
GAMG:  Solving for p, Initial residual = 4.2485221e-08, Final residual = 5.0209659e-09, No Iterations 1
time step continuity errors : sum local = 4.9492692e-10, global = -1.2207904e-11, cumulative = -1.0893585e-09
smoothSolver:  Solving for omega, Initial residual = 0.00012875135, Final residual = 6.533883e-06, No Iterations 3
smoothSolver:  Solving for k, Initial residual = 0.00099756878, Final residual = 4.9190397e-05, No Iterations 3
ExecutionTime = 3689.302 s  ClockTime = 3690 s


SIMPLE solution converged in 433 iterations

forces forces write:
    Sum of forces
        Total    : (0.093428453 3.7050644 -0.065632261)
        Pressure : (0.070618017 3.7222803 -0.077639359)
        Viscous  : (0.022810435 -0.0172159 0.012007098)
    Sum of moments
        Total    : (-2.3434979 0.076167925 0.56043886)
        Pressure : (-2.354791 0.066653044 0.51011444)
        Viscous  : (0.011293126 0.0095148803 0.050324417)


End

Finalising parallel run
