/*---------------------------------------------------------------------------*\
| =========                 |                                                 |
| \\      /  F ield         | OpenFOAM: The Open Source CFD Toolbox           |
|  \\    /   O peration     | Version:  v2012                                 |
|   \\  /    A nd           | Website:  www.openfoam.com                      |
|    \\/     M anipulation  |                                                 |
\*---------------------------------------------------------------------------*/
Build  : 79e353b84e-20201222 OPENFOAM=2012
Arch   : "LSB;label=32;scalar=64"
Exec   : simpleFoam -parallel
Date   : Apr 17 2022
Time   : 20:53:59
Host   : DESKTOP-OGTHBU9
PID    : 6816
I/O    : uncollated
Case   : C:/Users/ZEEMAR~1/AppData/Local/Temp/case
nProcs : 4
Hosts  :
(
    (DESKTOP-OGTHBU9 4)
)
Pstream initialized with:
    floatTransfer      : 0
    nProcsSimpleSum    : 0
    commsType          : nonBlocking
    polling iterations : 0
trapFpe: Floating point exception trapping enabled (FOAM_SIGFPE).
fileModificationChecking : Monitoring run-time modified files using timeStampMaster (fileModificationSkew 5, maxFileModificationPolls 20)
allowSystemOperations : Allowing user-supplied system call operations

// * * * * * * * * * * * * * * * * * * * * * * * * * * * * * * * * * * * * * //
Create time

Create mesh for time = 0


SIMPLE: convergence criteria
    field p	 tolerance 0.001
    field U	 tolerance 0.001
    field "(k|epsilon|omega|f|v2|nuTilda)"	 tolerance 0.001

Reading field p

Reading field U

Reading/calculating face flux field phi

Selecting incompressible transport model Newtonian
Selecting turbulence model type RAS
Selecting RAS turbulence model kOmegaSST
Selecting patchDistMethod meshWave
RAS
{
    RASModel        kOmegaSST;
    turbulence      on;
    printCoeffs     on;
    alphaK1         0.85;
    alphaK2         1;
    alphaOmega1     0.5;
    alphaOmega2     0.856;
    gamma1          0.55555556;
    gamma2          0.44;
    beta1           0.075;
    beta2           0.0828;
    betaStar        0.09;
    a1              0.31;
    b1              1;
    c1              10;
    F3              false;
    decayControl    false;
    kInf            0;
    omegaInf        0;
}

No MRF models present

No finite volume options present

Starting time loop

forces forces:
    rho: rhoInf
    Freestream density (rhoInf) set to 1
    Not including porosity effects
    Fields will be written

Time = 1

smoothSolver:  Solving for Ux, Initial residual = 0.039392851, Final residual = 0.00077165487, No Iterations 2
smoothSolver:  Solving for Uy, Initial residual = 0.11793012, Final residual = 0.002279407, No Iterations 2
smoothSolver:  Solving for Uz, Initial residual = 0.14829043, Final residual = 0.012399698, No Iterations 1
GAMG:  Solving for p, Initial residual = 0.55765257, Final residual = 0.0054890663, No Iterations 3
GAMG:  Solving for p, Initial residual = 0.032383706, Final residual = 0.00016264417, No Iterations 4
GAMG:  Solving for p, Initial residual = 0.0039310858, Final residual = 2.0212686e-05, No Iterations 4
GAMG:  Solving for p, Initial residual = 0.00078860713, Final residual = 3.8094237e-06, No Iterations 4
GAMG:  Solving for p, Initial residual = 0.00020319223, Final residual = 1.620154e-06, No Iterations 3
GAMG:  Solving for p, Initial residual = 5.6888576e-05, Final residual = 5.6574564e-07, No Iterations 3
time step continuity errors : sum local = 2.4936423e-07, global = -4.6745073e-08, cumulative = -4.6745073e-08
smoothSolver:  Solving for omega, Initial residual = 1, Final residual = 0.055263638, No Iterations 3
smoothSolver:  Solving for k, Initial residual = 1, Final residual = 0.080472705, No Iterations 2
ExecutionTime = 1.406 s  ClockTime = 1 s

forces forces write:
    Sum of forces
        Total    : (0.084566915 3.2442332 -0.095672038)
        Pressure : (0.084082604 3.2419666 -0.095472229)
        Viscous  : (0.00048431125 0.0022665981 -0.00019980841)
    Sum of moments
        Total    : (-2.0681497 0.09323682 0.51052393)
        Pressure : (-2.0668351 0.093052872 0.50967682)
        Viscous  : (-0.0013146733 0.00018394794 0.0008471091)


Time = 2

smoothSolver:  Solving for Ux, Initial residual = 0.019985349, Final residual = 0.00031333433, No Iterations 2
smoothSolver:  Solving for Uy, Initial residual = 0.049056647, Final residual = 0.0047019537, No Iterations 1
smoothSolver:  Solving for Uz, Initial residual = 0.080703442, Final residual = 0.0069758191, No Iterations 1
GAMG:  Solving for p, Initial residual = 0.45966768, Final residual = 0.0015681544, No Iterations 4
GAMG:  Solving for p, Initial residual = 0.026969949, Final residual = 0.00022896752, No Iterations 3
GAMG:  Solving for p, Initial residual = 0.0038683714, Final residual = 1.6305469e-05, No Iterations 4
GAMG:  Solving for p, Initial residual = 0.00086348371, Final residual = 6.3980886e-06, No Iterations 3
GAMG:  Solving for p, Initial residual = 0.00023482277, Final residual = 2.1704595e-06, No Iterations 3
GAMG:  Solving for p, Initial residual = 7.1123141e-05, Final residual = 6.6487212e-07, No Iterations 3
time step continuity errors : sum local = 3.2553455e-07, global = -8.0944475e-08, cumulative = -1.2768955e-07
smoothSolver:  Solving for omega, Initial residual = 0.47528022, Final residual = 0.027481065, No Iterations 3
smoothSolver:  Solving for k, Initial residual = 0.23920702, Final residual = 0.020999193, No Iterations 2
ExecutionTime = 1.956 s  ClockTime = 1 s

forces forces write:
    Sum of forces
        Total    : (0.14662202 4.1298351 -0.1115576)
        Pressure : (0.14573437 4.1262339 -0.11128618)
        Viscous  : (0.00088764338 0.0036011808 -0.00027142103)
    Sum of moments
        Total    : (-2.6402233 0.14129226 0.60145874)
        Pressure : (-2.6381638 0.14084796 0.60040313)
        Viscous  : (-0.0020594831 0.00044429587 0.0010556073)


Time = 3

smoothSolver:  Solving for Ux, Initial residual = 0.01884808, Final residual = 0.00034348284, No Iterations 2
smoothSolver:  Solving for Uy, Initial residual = 0.037896088, Final residual = 0.00093406587, No Iterations 2
smoothSolver:  Solving for Uz, Initial residual = 0.055715202, Final residual = 0.00095781153, No Iterations 2
GAMG:  Solving for p, Initial residual = 0.27818764, Final residual = 0.0020146233, No Iterations 3
GAMG:  Solving for p, Initial residual = 0.018231254, Final residual = 0.00017180057, No Iterations 3
GAMG:  Solving for p, Initial residual = 0.0028004322, Final residual = 1.0432723e-05, No Iterations 4
GAMG:  Solving for p, Initial residual = 0.00060547042, Final residual = 3.8071342e-06, No Iterations 3
GAMG:  Solving for p, Initial residual = 0.00016351329, Final residual = 1.0133509e-06, No Iterations 3
GAMG:  Solving for p, Initial residual = 4.805288e-05, Final residual = 3.1595627e-07, No Iterations 3
time step continuity errors : sum local = 1.304342e-07, global = -5.5763167e-08, cumulative = -1.8345271e-07
smoothSolver:  Solving for omega, Initial residual = 0.32590271, Final residual = 0.01978751, No Iterations 3
smoothSolver:  Solving for k, Initial residual = 0.13765616, Final residual = 0.0069830073, No Iterations 3
ExecutionTime = 2.526 s  ClockTime = 2 s

forces forces write:
    Sum of forces
        Total    : (0.15494517 4.3969228 -0.12661124)
        Pressure : (0.15367839 4.393178 -0.12640892)
        Viscous  : (0.001266785 0.0037447776 -0.00020232266)
    Sum of moments
        Total    : (-2.806832 0.15331496 0.59494825)
        Pressure : (-2.8047213 0.15265361 0.59375326)
        Viscous  : (-0.0021107235 0.00066134745 0.0011949956)


Time = 4

smoothSolver:  Solving for Ux, Initial residual = 0.019897241, Final residual = 0.00042146633, No Iterations 2
smoothSolver:  Solving for Uy, Initial residual = 0.038938477, Final residual = 0.0012430352, No Iterations 2
smoothSolver:  Solving for Uz, Initial residual = 0.048054835, Final residual = 0.001048282, No Iterations 2
GAMG:  Solving for p, Initial residual = 0.25905722, Final residual = 0.0020564495, No Iterations 3
GAMG:  Solving for p, Initial residual = 0.019854685, Final residual = 7.6387522e-05, No Iterations 4
GAMG:  Solving for p, Initial residual = 0.0023840458, Final residual = 2.0451289e-05, No Iterations 3
GAMG:  Solving for p, Initial residual = 0.00048088166, Final residual = 2.0960972e-06, No Iterations 4
GAMG:  Solving for p, Initial residual = 0.00011792812, Final residual = 8.1274682e-07, No Iterations 3
GAMG:  Solving for p, Initial residual = 3.3680205e-05, Final residual = 3.1765966e-07, No Iterations 3
time step continuity errors : sum local = 1.1222398e-07, global = 2.7866643e-08, cumulative = -1.5558607e-07
smoothSolver:  Solving for omega, Initial residual = 0.23988462, Final residual = 0.014846736, No Iterations 3
smoothSolver:  Solving for k, Initial residual = 0.095720738, Final residual = 0.0053562673, No Iterations 3
ExecutionTime = 3.416 s  ClockTime = 3 s

forces forces write:
    Sum of forces
        Total    : (0.091984844 4.0768614 -0.14196305)
        Pressure : (0.090558812 4.0736386 -0.14184523)
        Viscous  : (0.0014260317 0.0032227682 -0.00011782062)
    Sum of moments
        Total    : (-2.5911051 0.1192936 0.48642234)
        Pressure : (-2.5893322 0.11855459 0.48517088)
        Viscous  : (-0.001772883 0.00073900903 0.0012514612)


Time = 5

smoothSolver:  Solving for Ux, Initial residual = 0.013623962, Final residual = 0.00027116855, No Iterations 2
smoothSolver:  Solving for Uy, Initial residual = 0.024512749, Final residual = 0.00071987055, No Iterations 2
smoothSolver:  Solving for Uz, Initial residual = 0.035635359, Final residual = 0.00075897122, No Iterations 2
GAMG:  Solving for p, Initial residual = 0.27981143, Final residual = 0.00091374282, No Iterations 4
GAMG:  Solving for p, Initial residual = 0.022283996, Final residual = 0.00018788921, No Iterations 3
GAMG:  Solving for p, Initial residual = 0.0027061029, Final residual = 1.0821816e-05, No Iterations 4
GAMG:  Solving for p, Initial residual = 0.00048206177, Final residual = 3.7692464e-06, No Iterations 3
GAMG:  Solving for p, Initial residual = 0.00011640022, Final residual = 1.1418787e-06, No Iterations 3
GAMG:  Solving for p, Initial residual = 3.1322437e-05, Final residual = 1.2106241e-07, No Iterations 4
time step continuity errors : sum local = 4.2695093e-08, global = 6.6965073e-09, cumulative = -1.4888956e-07
smoothSolver:  Solving for omega, Initial residual = 0.18706228, Final residual = 0.011721968, No Iterations 3
smoothSolver:  Solving for k, Initial residual = 0.073256402, Final residual = 0.0043226556, No Iterations 3
ExecutionTime = 3.996 s  ClockTime = 4 s

forces forces write:
    Sum of forces
        Total    : (0.012138739 3.5899727 -0.152288)
        Pressure : (0.010629181 3.5873959 -0.15223614)
        Viscous  : (0.0015095585 0.0025767587 -5.1851935e-05)
    Sum of moments
        Total    : (-2.2715022 0.071986628 0.37177655)
        Pressure : (-2.2701329 0.071208773 0.37050133)
        Viscous  : (-0.0013692711 0.00077785563 0.0012752153)


Time = 6

smoothSolver:  Solving for Ux, Initial residual = 0.0099492396, Final residual = 0.00022291621, No Iterations 2
smoothSolver:  Solving for Uy, Initial residual = 0.018161801, Final residual = 0.00046021811, No Iterations 2
smoothSolver:  Solving for Uz, Initial residual = 0.030099093, Final residual = 0.00067758146, No Iterations 2
GAMG:  Solving for p, Initial residual = 0.22447048, Final residual = 0.0019597337, No Iterations 3
GAMG:  Solving for p, Initial residual = 0.018728921, Final residual = 7.3234235e-05, No Iterations 4
GAMG:  Solving for p, Initial residual = 0.0024092356, Final residual = 1.7462744e-05, No Iterations 3
GAMG:  Solving for p, Initial residual = 0.00046383671, Final residual = 1.815055e-06, No Iterations 4
GAMG:  Solving for p, Initial residual = 0.00011392601, Final residual = 7.7563283e-07, No Iterations 3
GAMG:  Solving for p, Initial residual = 3.0878919e-05, Final residual = 2.7044728e-07, No Iterations 3
time step continuity errors : sum local = 9.2954052e-08, global = 2.5317078e-08, cumulative = -1.2357249e-07
smoothSolver:  Solving for omega, Initial residual = 0.15165151, Final residual = 0.0095881117, No Iterations 3
smoothSolver:  Solving for k, Initial residual = 0.059404835, Final residual = 0.0036139909, No Iterations 3
ExecutionTime = 4.886 s  ClockTime = 4 s

forces forces write:
    Sum of forces
        Total    : (-0.021374314 3.3216006 -0.15157916)
        Pressure : (-0.023034253 3.3195269 -0.15157997)
        Viscous  : (0.0016599393 0.0020737328 8.1422542e-07)
    Sum of moments
        Total    : (-2.1010689 0.049084605 0.34510743)
        Pressure : (-2.1000096 0.04821968 0.34379288)
        Viscous  : (-0.0010593383 0.00086492477 0.0013145579)


Time = 7

smoothSolver:  Solving for Ux, Initial residual = 0.010793729, Final residual = 0.00027818993, No Iterations 2
smoothSolver:  Solving for Uy, Initial residual = 0.022848245, Final residual = 0.00073231187, No Iterations 2
smoothSolver:  Solving for Uz, Initial residual = 0.030631725, Final residual = 0.00079355307, No Iterations 2
GAMG:  Solving for p, Initial residual = 0.19465529, Final residual = 0.0012457484, No Iterations 3
GAMG:  Solving for p, Initial residual = 0.014658729, Final residual = 0.00012450043, No Iterations 3
GAMG:  Solving for p, Initial residual = 0.0019065237, Final residual = 1.031485e-05, No Iterations 4
GAMG:  Solving for p, Initial residual = 0.00037598707, Final residual = 3.4521499e-06, No Iterations 3
GAMG:  Solving for p, Initial residual = 9.835212e-05, Final residual = 4.5718902e-07, No Iterations 4
GAMG:  Solving for p, Initial residual = 2.7754882e-05, Final residual = 1.918682e-07, No Iterations 3
time step continuity errors : sum local = 6.4675701e-08, global = -1.2145859e-08, cumulative = -1.3571835e-07
smoothSolver:  Solving for omega, Initial residual = 0.12643314, Final residual = 0.0080493863, No Iterations 3
smoothSolver:  Solving for k, Initial residual = 0.050044124, Final residual = 0.0031019216, No Iterations 3
ExecutionTime = 5.456 s  ClockTime = 5 s

forces forces write:
    Sum of forces
        Total    : (0.0089563914 3.3761184 -0.1392676)
        Pressure : (0.0070334141 3.374335 -0.13931575)
        Viscous  : (0.0019229772 0.0017834148 4.815244e-05)
    Sum of moments
        Total    : (-2.1441476 0.061743816 0.4180728)
        Pressure : (-2.1432621 0.060719222 0.41669051)
        Viscous  : (-0.00088541441 0.0010245932 0.0013822919)


Time = 8

smoothSolver:  Solving for Ux, Initial residual = 0.0095485082, Final residual = 0.00022790868, No Iterations 2
smoothSolver:  Solving for Uy, Initial residual = 0.0174103, Final residual = 0.0005758679, No Iterations 2
smoothSolver:  Solving for Uz, Initial residual = 0.025621872, Final residual = 0.000672601, No Iterations 2
GAMG:  Solving for p, Initial residual = 0.19219755, Final residual = 0.0018173998, No Iterations 3
GAMG:  Solving for p, Initial residual = 0.014882878, Final residual = 0.0001474464, No Iterations 3
GAMG:  Solving for p, Initial residual = 0.0017231256, Final residual = 8.0401772e-06, No Iterations 4
GAMG:  Solving for p, Initial residual = 0.00032475445, Final residual = 2.3039376e-06, No Iterations 3
GAMG:  Solving for p, Initial residual = 7.858751e-05, Final residual = 6.3455403e-07, No Iterations 3
GAMG:  Solving for p, Initial residual = 2.1673169e-05, Final residual = 1.6737831e-07, No Iterations 3
time step continuity errors : sum local = 5.7642865e-08, global = -1.1664809e-08, cumulative = -1.4738315e-07
smoothSolver:  Solving for omega, Initial residual = 0.10766501, Final residual = 0.0068938645, No Iterations 3
smoothSolver:  Solving for k, Initial residual = 0.043306308, Final residual = 0.0027176413, No Iterations 3
ExecutionTime = 5.956 s  ClockTime = 5 s

forces forces write:
    Sum of forces
        Total    : (0.069211855 3.6043042 -0.12296155)
        Pressure : (0.066982506 3.6026318 -0.12304606)
        Viscous  : (0.0022293491 0.001672431 8.4506477e-05)
    Sum of moments
        Total    : (-2.2977708 0.092235701 0.52047723)
        Pressure : (-2.296949 0.091020257 0.51900958)
        Viscous  : (-0.00082179928 0.0012154444 0.0014676516)


Time = 9

smoothSolver:  Solving for Ux, Initial residual = 0.0078152303, Final residual = 0.00017994051, No Iterations 2
smoothSolver:  Solving for Uy, Initial residual = 0.011386201, Final residual = 0.00034824464, No Iterations 2
smoothSolver:  Solving for Uz, Initial residual = 0.019760515, Final residual = 0.00049487934, No Iterations 2
GAMG:  Solving for p, Initial residual = 0.16535272, Final residual = 0.0015683441, No Iterations 3
GAMG:  Solving for p, Initial residual = 0.013024963, Final residual = 0.00012850071, No Iterations 3
GAMG:  Solving for p, Initial residual = 0.001545511, Final residual = 6.0999228e-06, No Iterations 4
GAMG:  Solving for p, Initial residual = 0.000294989, Final residual = 1.9834134e-06, No Iterations 3
GAMG:  Solving for p, Initial residual = 7.0340292e-05, Final residual = 5.8395427e-07, No Iterations 3
GAMG:  Solving for p, Initial residual = 1.925062e-05, Final residual = 1.5479266e-07, No Iterations 3
time step continuity errors : sum local = 5.241783e-08, global = -1.1093163e-08, cumulative = -1.5847632e-07
smoothSolver:  Solving for omega, Initial residual = 0.09320883, Final residual = 0.0059979383, No Iterations 3
smoothSolver:  Solving for k, Initial residual = 0.038222009, Final residual = 0.0024203206, No Iterations 3
ExecutionTime = 6.618 s  ClockTime = 6 s

forces forces write:
    Sum of forces
        Total    : (0.11180991 3.7950682 -0.11190149)
        Pressure : (0.10930793 3.7933928 -0.112013)
        Viscous  : (0.0025019805 0.0016754035 0.0001115139)
    Sum of moments
        Total    : (-2.4209186 0.11476629 0.5722972)
        Pressure : (-2.4200945 0.1133695 0.57074874)
        Viscous  : (-0.00082413741 0.0013967863 0.0015484589)


Time = 10

smoothSolver:  Solving for Ux, Initial residual = 0.007804078, Final residual = 0.00019792464, No Iterations 2
smoothSolver:  Solving for Uy, Initial residual = 0.012193694, Final residual = 0.00039147472, No Iterations 2
smoothSolver:  Solving for Uz, Initial residual = 0.018814896, Final residual = 0.00048598921, No Iterations 2
GAMG:  Solving for p, Initial residual = 0.14340692, Final residual = 0.00092928018, No Iterations 3
GAMG:  Solving for p, Initial residual = 0.010621627, Final residual = 7.8937972e-05, No Iterations 3
GAMG:  Solving for p, Initial residual = 0.0013147401, Final residual = 5.3030186e-06, No Iterations 4
GAMG:  Solving for p, Initial residual = 0.00026334061, Final residual = 1.8931372e-06, No Iterations 3
GAMG:  Solving for p, Initial residual = 6.4793966e-05, Final residual = 6.1423605e-07, No Iterations 3
GAMG:  Solving for p, Initial residual = 1.8047784e-05, Final residual = 7.0412427e-08, No Iterations 4
time step continuity errors : sum local = 2.295882e-08, global = -3.3017658e-09, cumulative = -1.6177808e-07
smoothSolver:  Solving for omega, Initial residual = 0.081775993, Final residual = 0.0052856792, No Iterations 3
smoothSolver:  Solving for k, Initial residual = 0.034256756, Final residual = 0.0021846457, No Iterations 3
ExecutionTime = 7.238 s  ClockTime = 7 s

forces forces write:
    Sum of forces
        Total    : (0.11372024 3.8371764 -0.110576)
        Pressure : (0.11099364 3.8354534 -0.11071895)
        Viscous  : (0.0027265946 0.0017229865 0.0001429439)
    Sum of moments
        Total    : (-2.4427714 0.11671799 0.54699634)
        Pressure : (-2.4419267 0.11515271 0.54538232)
        Viscous  : (-0.0008447181 0.0015652796 0.0016140192)


Time = 11

smoothSolver:  Solving for Ux, Initial residual = 0.0071506966, Final residual = 0.00019008868, No Iterations 2
smoothSolver:  Solving for Uy, Initial residual = 0.011493487, Final residual = 0.0003750129, No Iterations 2
smoothSolver:  Solving for Uz, Initial residual = 0.01836467, Final residual = 0.0004888125, No Iterations 2
GAMG:  Solving for p, Initial residual = 0.13688566, Final residual = 0.0010166368, No Iterations 3
GAMG:  Solving for p, Initial residual = 0.010880511, Final residual = 9.3975756e-05, No Iterations 3
GAMG:  Solving for p, Initial residual = 0.0013463544, Final residual = 5.7628761e-06, No Iterations 4
GAMG:  Solving for p, Initial residual = 0.00026038136, Final residual = 2.0187791e-06, No Iterations 3
GAMG:  Solving for p, Initial residual = 6.1990259e-05, Final residual = 2.6892412e-07, No Iterations 4
GAMG:  Solving for p, Initial residual = 1.6815762e-05, Final residual = 1.1258966e-07, No Iterations 3
time step continuity errors : sum local = 3.6105222e-08, global = 6.6804194e-09, cumulative = -1.5509766e-07
smoothSolver:  Solving for omega, Initial residual = 0.072545503, Final residual = 0.0047077179, No Iterations 3
smoothSolver:  Solving for k, Initial residual = 0.031077639, Final residual = 0.0019936447, No Iterations 3
ExecutionTime = 7.815 s  ClockTime = 7 s

forces forces write:
    Sum of forces
        Total    : (0.085786115 3.7575116 -0.11668194)
        Pressure : (0.082844878 3.7557668 -0.11687315)
        Viscous  : (0.0029412366 0.001744771 0.00019121034)
    Sum of moments
        Total    : (-2.3856544 0.10330456 0.48003477)
        Pressure : (-2.3848138 0.10156681 0.47836475)
        Viscous  : (-0.00084063398 0.0017377488 0.0016700132)


Time = 12

smoothSolver:  Solving for Ux, Initial residual = 0.0059596413, Final residual = 0.00016112153, No Iterations 2
smoothSolver:  Solving for Uy, Initial residual = 0.0089206153, Final residual = 0.00026266206, No Iterations 2
smoothSolver:  Solving for Uz, Initial residual = 0.017087053, Final residual = 0.00047300741, No Iterations 2
GAMG:  Solving for p, Initial residual = 0.1245108, Final residual = 0.0010530504, No Iterations 3
GAMG:  Solving for p, Initial residual = 0.010383504, Final residual = 8.5227764e-05, No Iterations 3
GAMG:  Solving for p, Initial residual = 0.0012274225, Final residual = 1.2149279e-05, No Iterations 3
GAMG:  Solving for p, Initial residual = 0.00023419821, Final residual = 9.7620089e-07, No Iterations 4
GAMG:  Solving for p, Initial residual = 5.428849e-05, Final residual = 3.9167109e-07, No Iterations 3
GAMG:  Solving for p, Initial residual = 1.4367094e-05, Final residual = 1.4017055e-07, No Iterations 3
time step continuity errors : sum local = 4.4648745e-08, global = 1.0267766e-08, cumulative = -1.448299e-07
smoothSolver:  Solving for omega, Initial residual = 0.064961453, Final residual = 0.0042307986, No Iterations 3
smoothSolver:  Solving for k, Initial residual = 0.028473661, Final residual = 0.0018357587, No Iterations 3
ExecutionTime = 8.365 s  ClockTime = 8 s

forces forces write:
    Sum of forces
        Total    : (0.055909976 3.6549084 -0.12418903)
        Pressure : (0.052683321 3.6532293 -0.12446129)
        Viscous  : (0.0032266555 0.0016791041 0.0002722586)
    Sum of moments
        Total    : (-2.3184514 0.088593066 0.42935635)
        Pressure : (-2.3176781 0.086631113 0.42762181)
        Viscous  : (-0.00077332723 0.0019619534 0.001734545)


Time = 13

smoothSolver:  Solving for Ux, Initial residual = 0.0058321601, Final residual = 0.00016254684, No Iterations 2
smoothSolver:  Solving for Uy, Initial residual = 0.0088149165, Final residual = 0.00026520327, No Iterations 2
smoothSolver:  Solving for Uz, Initial residual = 0.016377104, Final residual = 0.00047584661, No Iterations 2
GAMG:  Solving for p, Initial residual = 0.10922761, Final residual = 0.00082892239, No Iterations 3
GAMG:  Solving for p, Initial residual = 0.0082721382, Final residual = 6.1350476e-05, No Iterations 3
GAMG:  Solving for p, Initial residual = 0.00094780334, Final residual = 7.8639826e-06, No Iterations 3
GAMG:  Solving for p, Initial residual = 0.00018318163, Final residual = 1.295144e-06, No Iterations 3
GAMG:  Solving for p, Initial residual = 4.3391477e-05, Final residual = 3.1165321e-07, No Iterations 3
GAMG:  Solving for p, Initial residual = 1.1683025e-05, Final residual = 7.8062537e-08, No Iterations 3
time step continuity errors : sum local = 2.4839838e-08, global = 6.3840204e-09, cumulative = -1.3844588e-07
smoothSolver:  Solving for omega, Initial residual = 0.058635771, Final residual = 0.0038312738, No Iterations 3
smoothSolver:  Solving for k, Initial residual = 0.026303563, Final residual = 0.0017028474, No Iterations 3
ExecutionTime = 9.095 s  ClockTime = 9 s

forces forces write:
    Sum of forces
        Total    : (0.045483994 3.6086674 -0.12749894)
        Pressure : (0.041837815 3.6071798 -0.12789215)
        Viscous  : (0.0036461786 0.0014875993 0.00039321049)
    Sum of moments
        Total    : (-2.2929979 0.083255124 0.42830941)
        Pressure : (-2.2923763 0.080983386 0.42649089)
        Viscous  : (-0.00062164659 0.0022717378 0.0018185121)


Time = 14

smoothSolver:  Solving for Ux, Initial residual = 0.0058488951, Final residual = 0.00016228684, No Iterations 2
smoothSolver:  Solving for Uy, Initial residual = 0.00833843, Final residual = 0.00025964947, No Iterations 2
smoothSolver:  Solving for Uz, Initial residual = 0.014944058, Final residual = 0.00043983776, No Iterations 2
GAMG:  Solving for p, Initial residual = 0.10492869, Final residual = 0.0007253539, No Iterations 3
GAMG:  Solving for p, Initial residual = 0.0073841032, Final residual = 6.3568881e-05, No Iterations 3
GAMG:  Solving for p, Initial residual = 0.00085478826, Final residual = 4.0652009e-06, No Iterations 4
GAMG:  Solving for p, Initial residual = 0.0001645198, Final residual = 1.1590344e-06, No Iterations 3
GAMG:  Solving for p, Initial residual = 3.9232143e-05, Final residual = 3.4476499e-07, No Iterations 3
GAMG:  Solving for p, Initial residual = 1.0599475e-05, Final residual = 9.3558613e-08, No Iterations 3
time step continuity errors : sum local = 2.990325e-08, global = -5.9801505e-09, cumulative = -1.4442603e-07
smoothSolver:  Solving for omega, Initial residual = 0.053293461, Final residual = 0.0034922894, No Iterations 3
smoothSolver:  Solving for k, Initial residual = 0.024471482, Final residual = 0.0015896102, No Iterations 3
ExecutionTime = 9.605 s  ClockTime = 9 s

forces forces write:
    Sum of forces
        Total    : (0.056383802 3.6308617 -0.12521254)
        Pressure : (0.052163733 3.6297034 -0.12576356)
        Viscous  : (0.004220069 0.0011583367 0.00055102757)
    Sum of moments
        Total    : (-2.3133813 0.088137595 0.46601919)
        Pressure : (-2.3129981 0.0854682 0.46409438)
        Viscous  : (-0.00038316151 0.0026693953 0.0019248149)


Time = 15

smoothSolver:  Solving for Ux, Initial residual = 0.0054276968, Final residual = 0.0001436948, No Iterations 2
smoothSolver:  Solving for Uy, Initial residual = 0.0069271056, Final residual = 0.00022138926, No Iterations 2
smoothSolver:  Solving for Uz, Initial residual = 0.013320201, Final residual = 0.0003862272, No Iterations 2
GAMG:  Solving for p, Initial residual = 0.097284425, Final residual = 0.000707682, No Iterations 3
GAMG:  Solving for p, Initial residual = 0.0071171132, Final residual = 6.0181758e-05, No Iterations 3
GAMG:  Solving for p, Initial residual = 0.00082120622, Final residual = 3.4693352e-06, No Iterations 4
GAMG:  Solving for p, Initial residual = 0.00015838242, Final residual = 1.0561825e-06, No Iterations 3
GAMG:  Solving for p, Initial residual = 3.7868402e-05, Final residual = 3.2591885e-07, No Iterations 3
GAMG:  Solving for p, Initial residual = 1.041009e-05, Final residual = 8.4428666e-08, No Iterations 3
time step continuity errors : sum local = 2.6916531e-08, global = -5.2466213e-09, cumulative = -1.4967265e-07
smoothSolver:  Solving for omega, Initial residual = 0.048727485, Final residual = 0.003201551, No Iterations 3
smoothSolver:  Solving for k, Initial residual = 0.022905166, Final residual = 0.0014918051, No Iterations 3
ExecutionTime = 10.145 s  ClockTime = 10 s

forces forces write:
    Sum of forces
        Total    : (0.076183773 3.6845758 -0.11945291)
        Pressure : (0.071274417 3.6838536 -0.12018912)
        Viscous  : (0.004909356 0.00072222283 0.00073620927)
    Sum of moments
        Total    : (-2.3513754 0.09707472 0.5076694)
        Pressure : (-2.3512843 0.093964704 0.50562581)
        Viscous  : (-9.1079615e-05 0.0031100164 0.0020435916)


Time = 16

smoothSolver:  Solving for Ux, Initial residual = 0.0050119203, Final residual = 0.00013028995, No Iterations 2
smoothSolver:  Solving for Uy, Initial residual = 0.0065202168, Final residual = 0.00021202929, No Iterations 2
smoothSolver:  Solving for Uz, Initial residual = 0.012625382, Final residual = 0.00036492474, No Iterations 2
GAMG:  Solving for p, Initial residual = 0.085504357, Final residual = 0.00061825701, No Iterations 3
GAMG:  Solving for p, Initial residual = 0.0064620636, Final residual = 4.6719358e-05, No Iterations 3
GAMG:  Solving for p, Initial residual = 0.0007534083, Final residual = 5.9739521e-06, No Iterations 3
GAMG:  Solving for p, Initial residual = 0.00015089616, Final residual = 1.0418227e-06, No Iterations 3
GAMG:  Solving for p, Initial residual = 3.549028e-05, Final residual = 2.643837e-07, No Iterations 3
GAMG:  Solving for p, Initial residual = 9.6443423e-06, Final residual = 6.9887744e-08, No Iterations 3
time step continuity errors : sum local = 2.197426e-08, global = -4.5295553e-09, cumulative = -1.542022e-07
smoothSolver:  Solving for omega, Initial residual = 0.044793132, Final residual = 0.00294991, No Iterations 3
smoothSolver:  Solving for k, Initial residual = 0.021553728, Final residual = 0.0014065265, No Iterations 3
ExecutionTime = 11.106 s  ClockTime = 11 s

forces forces write:
    Sum of forces
        Total    : (0.090737152 3.7251447 -0.11371792)
        Pressure : (0.085039956 3.7249595 -0.11466696)
        Viscous  : (0.005697196 0.00018516903 0.00094903828)
    Sum of moments
        Total    : (-2.3765047 0.10328221 0.52476417)
        Pressure : (-2.3767486 0.099709203 0.52259062)
        Viscous  : (0.00024391631 0.0035730059 0.0021735525)


Time = 17

smoothSolver:  Solving for Ux, Initial residual = 0.0047661424, Final residual = 0.00012867553, No Iterations 2
smoothSolver:  Solving for Uy, Initial residual = 0.0063180777, Final residual = 0.00019406895, No Iterations 2
smoothSolver:  Solving for Uz, Initial residual = 0.012346429, Final residual = 0.00036665542, No Iterations 2
GAMG:  Solving for p, Initial residual = 0.080064084, Final residual = 0.0005426617, No Iterations 3
GAMG:  Solving for p, Initial residual = 0.0060748855, Final residual = 3.9689154e-05, No Iterations 3
GAMG:  Solving for p, Initial residual = 0.00071991046, Final residual = 6.1492331e-06, No Iterations 3
GAMG:  Solving for p, Initial residual = 0.00014799138, Final residual = 1.1205888e-06, No Iterations 3
GAMG:  Solving for p, Initial residual = 3.537647e-05, Final residual = 2.8248855e-07, No Iterations 3
GAMG:  Solving for p, Initial residual = 9.7357321e-06, Final residual = 7.441035e-08, No Iterations 3
time step continuity errors : sum local = 2.3096744e-08, global = -3.8344288e-09, cumulative = -1.5803663e-07
smoothSolver:  Solving for omega, Initial residual = 0.04137575, Final residual = 0.0027304196, No Iterations 3
smoothSolver:  Solving for k, Initial residual = 0.020380304, Final residual = 0.0013316311, No Iterations 3
ExecutionTime = 11.99 s  ClockTime = 12 s

forces forces write:
    Sum of forces
        Total    : (0.094071994 3.7312514 -0.11041575)
        Pressure : (0.087446039 3.7317153 -0.11161954)
        Viscous  : (0.0066259549 -0.00046386979 0.0012037896)
    Sum of moments
        Total    : (-2.3767638 0.10421272 0.51315738)
        Pressure : (-2.3773801 0.1001333 0.51084175)
        Viscous  : (0.00061627732 0.0040794258 0.0023156302)


Time = 18

smoothSolver:  Solving for Ux, Initial residual = 0.0045444859, Final residual = 0.00012699574, No Iterations 2
smoothSolver:  Solving for Uy, Initial residual = 0.005350301, Final residual = 0.00015082047, No Iterations 2
smoothSolver:  Solving for Uz, Initial residual = 0.011852016, Final residual = 0.00036558273, No Iterations 2
GAMG:  Solving for p, Initial residual = 0.075810946, Final residual = 0.00048221392, No Iterations 3
GAMG:  Solving for p, Initial residual = 0.0058293151, Final residual = 3.9196138e-05, No Iterations 3
GAMG:  Solving for p, Initial residual = 0.00069641209, Final residual = 2.8876909e-06, No Iterations 4
GAMG:  Solving for p, Initial residual = 0.00013753816, Final residual = 8.6301884e-07, No Iterations 3
GAMG:  Solving for p, Initial residual = 3.2734951e-05, Final residual = 2.5883023e-07, No Iterations 3
GAMG:  Solving for p, Initial residual = 8.7844293e-06, Final residual = 6.8092064e-08, No Iterations 3
time step continuity errors : sum local = 2.1025336e-08, global = 4.1575609e-09, cumulative = -1.5387907e-07
smoothSolver:  Solving for omega, Initial residual = 0.038383667, Final residual = 0.0025373369, No Iterations 3
smoothSolver:  Solving for k, Initial residual = 0.019353972, Final residual = 0.0012653542, No Iterations 3
ExecutionTime = 12.765 s  ClockTime = 12 s

forces forces write:
    Sum of forces
        Total    : (0.089374238 3.7108747 -0.10981233)
        Pressure : (0.081705061 3.7120731 -0.11129822)
        Viscous  : (0.0076691769 -0.0011984787 0.0014858966)
    Sum of moments
        Total    : (-2.3604399 0.10169151 0.48926862)
        Pressure : (-2.3614337 0.097099244 0.48680645)
        Viscous  : (0.00099384985 0.0045922674 0.0024621686)


Time = 19

smoothSolver:  Solving for Ux, Initial residual = 0.0044005352, Final residual = 0.00012342371, No Iterations 2
smoothSolver:  Solving for Uy, Initial residual = 0.0046902434, Final residual = 0.0001292198, No Iterations 2
smoothSolver:  Solving for Uz, Initial residual = 0.011167769, Final residual = 0.00035315601, No Iterations 2
GAMG:  Solving for p, Initial residual = 0.069009399, Final residual = 0.0003929514, No Iterations 3
GAMG:  Solving for p, Initial residual = 0.0052125353, Final residual = 3.1146784e-05, No Iterations 3
GAMG:  Solving for p, Initial residual = 0.00062498117, Final residual = 3.8508077e-06, No Iterations 3
GAMG:  Solving for p, Initial residual = 0.00012480019, Final residual = 5.8596217e-07, No Iterations 3
GAMG:  Solving for p, Initial residual = 3.0203973e-05, Final residual = 1.391589e-07, No Iterations 3
GAMG:  Solving for p, Initial residual = 8.1352599e-06, Final residual = 3.8072942e-08, No Iterations 3
time step continuity errors : sum local = 1.1736468e-08, global = 3.479827e-09, cumulative = -1.5039924e-07
smoothSolver:  Solving for omega, Initial residual = 0.035743689, Final residual = 0.0023662495, No Iterations 3
smoothSolver:  Solving for k, Initial residual = 0.018450131, Final residual = 0.0012062966, No Iterations 3
ExecutionTime = 13.315 s  ClockTime = 13 s

forces forces write:
    Sum of forces
        Total    : (0.08387867 3.6859246 -0.11048811)
        Pressure : (0.075067925 3.6879624 -0.11227349)
        Viscous  : (0.0088107458 -0.0020377747 0.0017853854)
    Sum of moments
        Total    : (-2.3441022 0.099118766 0.47299313)
        Pressure : (-2.3454929 0.094020073 0.47037328)
        Viscous  : (0.0013907109 0.0050986932 0.0026198455)


Time = 20

smoothSolver:  Solving for Ux, Initial residual = 0.0042475324, Final residual = 0.00011903875, No Iterations 2
smoothSolver:  Solving for Uy, Initial residual = 0.0047466677, Final residual = 0.00013988728, No Iterations 2
smoothSolver:  Solving for Uz, Initial residual = 0.010450314, Final residual = 0.00033644376, No Iterations 2
GAMG:  Solving for p, Initial residual = 0.06379347, Final residual = 0.00038056235, No Iterations 3
GAMG:  Solving for p, Initial residual = 0.0046245098, Final residual = 3.3826988e-05, No Iterations 3
GAMG:  Solving for p, Initial residual = 0.00055382168, Final residual = 2.3765044e-06, No Iterations 4
GAMG:  Solving for p, Initial residual = 0.00011205088, Final residual = 7.2855384e-07, No Iterations 3
GAMG:  Solving for p, Initial residual = 2.703464e-05, Final residual = 2.0859522e-07, No Iterations 3
GAMG:  Solving for p, Initial residual = 7.4018606e-06, Final residual = 6.08e-08, No Iterations 3
time step continuity errors : sum local = 1.8726768e-08, global = 3.0774064e-09, cumulative = -1.4732184e-07
smoothSolver:  Solving for omega, Initial residual = 0.033396838, Final residual = 0.0022135467, No Iterations 3
smoothSolver:  Solving for k, Initial residual = 0.017649452, Final residual = 0.0011535208, No Iterations 3
ExecutionTime = 13.83 s  ClockTime = 13 s

forces forces write:
    Sum of forces
        Total    : (0.083006052 3.6736622 -0.11074336)
        Pressure : (0.073027288 3.6765594 -0.11281815)
        Viscous  : (0.0099787639 -0.0028972119 0.0020747938)
    Sum of moments
        Total    : (-2.3387993 0.098749367 0.47375659)
        Pressure : (-2.3405439 0.093210074 0.47098723)
        Viscous  : (0.0017445399 0.0055392929 0.0027693635)


Time = 21

smoothSolver:  Solving for Ux, Initial residual = 0.0040680234, Final residual = 0.00011462417, No Iterations 2
smoothSolver:  Solving for Uy, Initial residual = 0.0044818077, Final residual = 0.00012958947, No Iterations 2
smoothSolver:  Solving for Uz, Initial residual = 0.0098211491, Final residual = 0.00031404145, No Iterations 2
GAMG:  Solving for p, Initial residual = 0.06075727, Final residual = 0.00036951631, No Iterations 3
GAMG:  Solving for p, Initial residual = 0.0044302328, Final residual = 3.4312982e-05, No Iterations 3
GAMG:  Solving for p, Initial residual = 0.00053909774, Final residual = 3.1131156e-06, No Iterations 4
GAMG:  Solving for p, Initial residual = 0.00011144629, Final residual = 8.6806149e-07, No Iterations 3
GAMG:  Solving for p, Initial residual = 2.6830822e-05, Final residual = 2.271046e-07, No Iterations 3
GAMG:  Solving for p, Initial residual = 7.3469826e-06, Final residual = 5.9403899e-08, No Iterations 3
time step continuity errors : sum local = 1.8269688e-08, global = -3.4544519e-09, cumulative = -1.5077629e-07
smoothSolver:  Solving for omega, Initial residual = 0.031295041, Final residual = 0.0020763927, No Iterations 3
smoothSolver:  Solving for k, Initial residual = 0.016937094, Final residual = 0.0011062068, No Iterations 3
ExecutionTime = 14.34 s  ClockTime = 14 s

forces forces write:
    Sum of forces
        Total    : (0.087538087 3.6765658 -0.109561)
        Pressure : (0.076423399 3.6803466 -0.11188585)
        Viscous  : (0.011114688 -0.0037808293 0.0023248486)
    Sum of moments
        Total    : (-2.3440642 0.10058894 0.48693647)
        Pressure : (-2.3461384 0.094696124 0.4840182)
        Viscous  : (0.0020741791 0.005892816 0.0029182729)


Time = 22

smoothSolver:  Solving for Ux, Initial residual = 0.0039225668, Final residual = 0.00011115225, No Iterations 2
smoothSolver:  Solving for Uy, Initial residual = 0.0040173717, Final residual = 0.0001105942, No Iterations 2
smoothSolver:  Solving for Uz, Initial residual = 0.0094317487, Final residual = 0.00029755739, No Iterations 2
GAMG:  Solving for p, Initial residual = 0.05701277, Final residual = 0.00031681241, No Iterations 3
GAMG:  Solving for p, Initial residual = 0.0041303129, Final residual = 2.695642e-05, No Iterations 3
GAMG:  Solving for p, Initial residual = 0.0005128633, Final residual = 5.0591958e-06, No Iterations 3
GAMG:  Solving for p, Initial residual = 0.00010875118, Final residual = 4.9312692e-07, No Iterations 4
GAMG:  Solving for p, Initial residual = 2.5937082e-05, Final residual = 1.7398195e-07, No Iterations 3
GAMG:  Solving for p, Initial residual = 7.0677599e-06, Final residual = 5.3022488e-08, No Iterations 3
time step continuity errors : sum local = 1.6206349e-08, global = -3.1369618e-09, cumulative = -1.5391325e-07
smoothSolver:  Solving for omega, Initial residual = 0.029402422, Final residual = 0.0019525687, No Iterations 3
smoothSolver:  Solving for k, Initial residual = 0.01629815, Final residual = 0.0010634976, No Iterations 3
ExecutionTime = 15.15 s  ClockTime = 15 s

forces forces write:
    Sum of forces
        Total    : (0.094396721 3.6866008 -0.10719792)
        Pressure : (0.082413362 3.6911597 -0.10965786)
        Viscous  : (0.011983359 -0.004558959 0.0024599401)
    Sum of moments
        Total    : (-2.352631 0.10303484 0.50102546)
        Pressure : (-2.3549524 0.096993101 0.49797623)
        Viscous  : (0.002321458 0.0060417408 0.0030492303)


Time = 23

smoothSolver:  Solving for Ux, Initial residual = 0.0038226172, Final residual = 0.00010808679, No Iterations 2
smoothSolver:  Solving for Uy, Initial residual = 0.0037149837, Final residual = 0.00010025099, No Iterations 2
smoothSolver:  Solving for Uz, Initial residual = 0.0092179851, Final residual = 0.00028788315, No Iterations 2
GAMG:  Solving for p, Initial residual = 0.052415031, Final residual = 0.00027077674, No Iterations 3
GAMG:  Solving for p, Initial residual = 0.0038881293, Final residual = 2.5026411e-05, No Iterations 3
GAMG:  Solving for p, Initial residual = 0.00048022246, Final residual = 3.9777928e-06, No Iterations 3
GAMG:  Solving for p, Initial residual = 0.00010121386, Final residual = 6.6136193e-07, No Iterations 3
GAMG:  Solving for p, Initial residual = 2.4323325e-05, Final residual = 1.5383113e-07, No Iterations 3
GAMG:  Solving for p, Initial residual = 6.5485184e-06, Final residual = 4.2218911e-08, No Iterations 3
time step continuity errors : sum local = 1.2781866e-08, global = 3.2135566e-09, cumulative = -1.506997e-07
smoothSolver:  Solving for omega, Initial residual = 0.027689146, Final residual = 0.0018402517, No Iterations 3
smoothSolver:  Solving for k, Initial residual = 0.01572279, Final residual = 0.0010248868, No Iterations 3
ExecutionTime = 15.962 s  ClockTime = 15 s

forces forces write:
    Sum of forces
        Total    : (0.099872653 3.6941893 -0.10472011)
        Pressure : (0.087429747 3.6992948 -0.10716468)
        Viscous  : (0.012442906 -0.005105463 0.0024445731)
    Sum of moments
        Total    : (-2.3575046 0.10460289 0.50730704)
        Pressure : (-2.3599417 0.098608757 0.5041577)
        Viscous  : (0.0024370685 0.0059941335 0.0031493396)


Time = 24

smoothSolver:  Solving for Ux, Initial residual = 0.0037368364, Final residual = 0.00010431684, No Iterations 2
smoothSolver:  Solving for Uy, Initial residual = 0.0034654697, Final residual = 9.1568842e-05, No Iterations 2
smoothSolver:  Solving for Uz, Initial residual = 0.0090459173, Final residual = 0.00028076101, No Iterations 2
GAMG:  Solving for p, Initial residual = 0.048551184, Final residual = 0.00026768578, No Iterations 3
GAMG:  Solving for p, Initial residual = 0.0036803666, Final residual = 2.485793e-05, No Iterations 3
GAMG:  Solving for p, Initial residual = 0.00045705042, Final residual = 4.5297996e-06, No Iterations 3
GAMG:  Solving for p, Initial residual = 9.899095e-05, Final residual = 9.37988e-07, No Iterations 3
GAMG:  Solving for p, Initial residual = 2.3643597e-05, Final residual = 9.56559e-08, No Iterations 4
GAMG:  Solving for p, Initial residual = 6.4037498e-06, Final residual = 4.0354691e-08, No Iterations 3
time step continuity errors : sum local = 1.2100813e-08, global = 2.3430392e-09, cumulative = -1.4835666e-07
smoothSolver:  Solving for omega, Initial residual = 0.026130001, Final residual = 0.0017378773, No Iterations 3
smoothSolver:  Solving for k, Initial residual = 0.015201828, Final residual = 0.00098987021, No Iterations 3
ExecutionTime = 16.818 s  ClockTime = 16 s

forces forces write:
    Sum of forces
        Total    : (0.10214359 3.6947773 -0.10312288)
        Pressure : (0.089520092 3.7002473 -0.10543973)
        Viscous  : (0.0126235 -0.005469953 0.0023168418)
    Sum of moments
        Total    : (-2.3564583 0.10482773 0.50466465)
        Pressure : (-2.3589285 0.099001549 0.50142829)
        Viscous  : (0.0024702566 0.005826178 0.0032363604)


Time = 25

smoothSolver:  Solving for Ux, Initial residual = 0.0036454099, Final residual = 0.00010009044, No Iterations 2
smoothSolver:  Solving for Uy, Initial residual = 0.0032126619, Final residual = 8.2364147e-05, No Iterations 2
smoothSolver:  Solving for Uz, Initial residual = 0.0088007897, Final residual = 0.00027042056, No Iterations 2
GAMG:  Solving for p, Initial residual = 0.04575933, Final residual = 0.00023725134, No Iterations 3
GAMG:  Solving for p, Initial residual = 0.0034629597, Final residual = 1.9222842e-05, No Iterations 3
GAMG:  Solving for p, Initial residual = 0.00043219096, Final residual = 4.1656387e-06, No Iterations 3
GAMG:  Solving for p, Initial residual = 9.4708465e-05, Final residual = 3.5187589e-07, No Iterations 4
GAMG:  Solving for p, Initial residual = 2.2200451e-05, Final residual = 1.5447277e-07, No Iterations 3
GAMG:  Solving for p, Initial residual = 6.186456e-06, Final residual = 5.6310907e-08, No Iterations 3
time step continuity errors : sum local = 1.6756762e-08, global = 4.0821035e-09, cumulative = -1.4427455e-07
smoothSolver:  Solving for omega, Initial residual = 0.024702095, Final residual = 0.0016440174, No Iterations 3
smoothSolver:  Solving for k, Initial residual = 0.014726004, Final residual = 0.00095789855, No Iterations 3
ExecutionTime = 17.393 s  ClockTime = 17 s

forces forces write:
    Sum of forces
        Total    : (0.10138028 3.6901773 -0.10286601)
        Pressure : (0.088913897 3.6957824 -0.10492136)
        Viscous  : (0.012466381 -0.0056051232 0.0020553521)
    Sum of moments
        Total    : (-2.352013 0.10415374 0.49801044)
        Pressure : (-2.3544484 0.098580515 0.49469283)
        Viscous  : (0.0024353344 0.0055732285 0.0033176052)


Time = 26

smoothSolver:  Solving for Ux, Initial residual = 0.0035215719, Final residual = 9.5336828e-05, No Iterations 2
smoothSolver:  Solving for Uy, Initial residual = 0.0031103317, Final residual = 8.1253087e-05, No Iterations 2
smoothSolver:  Solving for Uz, Initial residual = 0.0084386067, Final residual = 0.00025610676, No Iterations 2
GAMG:  Solving for p, Initial residual = 0.042960962, Final residual = 0.00019677172, No Iterations 3
GAMG:  Solving for p, Initial residual = 0.0032072538, Final residual = 1.7434668e-05, No Iterations 3
GAMG:  Solving for p, Initial residual = 0.00039855211, Final residual = 3.5355502e-06, No Iterations 3
GAMG:  Solving for p, Initial residual = 8.8631177e-05, Final residual = 7.385823e-07, No Iterations 3
GAMG:  Solving for p, Initial residual = 2.1110861e-05, Final residual = 1.6921487e-07, No Iterations 3
GAMG:  Solving for p, Initial residual = 5.8458518e-06, Final residual = 3.9370021e-08, No Iterations 3
time step continuity errors : sum local = 1.1651427e-08, global = 3.8866147e-09, cumulative = -1.4038794e-07
smoothSolver:  Solving for omega, Initial residual = 0.023389848, Final residual = 0.0015575709, No Iterations 3
smoothSolver:  Solving for k, Initial residual = 0.014291649, Final residual = 0.00092881894, No Iterations 3
ExecutionTime = 17.863 s  ClockTime = 17 s

forces forces write:
    Sum of forces
        Total    : (0.099343733 3.6850291 -0.10361636)
        Pressure : (0.087332828 3.6905177 -0.10529135)
        Viscous  : (0.012010905 -0.0054885683 0.0016749905)
    Sum of moments
        Total    : (-2.3481921 0.1033969 0.49348215)
        Pressure : (-2.3505092 0.09814601 0.49009436)
        Viscous  : (0.0023171398 0.0052508948 0.0033877911)


Time = 27

smoothSolver:  Solving for Ux, Initial residual = 0.0033852987, Final residual = 9.1859499e-05, No Iterations 2
smoothSolver:  Solving for Uy, Initial residual = 0.0030474763, Final residual = 8.3068261e-05, No Iterations 2
smoothSolver:  Solving for Uz, Initial residual = 0.0080774866, Final residual = 0.00023910808, No Iterations 2
GAMG:  Solving for p, Initial residual = 0.040173517, Final residual = 0.00019789819, No Iterations 3
GAMG:  Solving for p, Initial residual = 0.002961044, Final residual = 1.9985854e-05, No Iterations 3
GAMG:  Solving for p, Initial residual = 0.00036989784, Final residual = 1.3922924e-06, No Iterations 4
GAMG:  Solving for p, Initial residual = 8.0388823e-05, Final residual = 4.985125e-07, No Iterations 3
GAMG:  Solving for p, Initial residual = 1.9327541e-05, Final residual = 1.6027903e-07, No Iterations 3
GAMG:  Solving for p, Initial residual = 5.3937895e-06, Final residual = 4.6357373e-08, No Iterations 3
time step continuity errors : sum local = 1.3657628e-08, global = -3.4609478e-09, cumulative = -1.4384889e-07
smoothSolver:  Solving for omega, Initial residual = 0.022178378, Final residual = 0.0014777081, No Iterations 3
smoothSolver:  Solving for k, Initial residual = 0.013893329, Final residual = 0.00090227421, No Iterations 3
ExecutionTime = 18.343 s  ClockTime = 18 s

forces forces write:
    Sum of forces
        Total    : (0.097999386 3.6827974 -0.10456906)
        Pressure : (0.086534965 3.6881181 -0.10578376)
        Viscous  : (0.011464421 -0.0053207218 0.0012147068)
    Sum of moments
        Total    : (-2.3474378 0.10316924 0.49431129)
        Pressure : (-2.349619 0.098245946 0.49084782)
        Viscous  : (0.0021812414 0.0049232966 0.0034634632)


Time = 28

smoothSolver:  Solving for Ux, Initial residual = 0.0033001906, Final residual = 9.0027152e-05, No Iterations 2
smoothSolver:  Solving for Uy, Initial residual = 0.0028499756, Final residual = 7.5941762e-05, No Iterations 2
smoothSolver:  Solving for Uz, Initial residual = 0.007833024, Final residual = 0.00022832808, No Iterations 2
GAMG:  Solving for p, Initial residual = 0.037760505, Final residual = 0.0001804962, No Iterations 3
GAMG:  Solving for p, Initial residual = 0.0028238281, Final residual = 1.6910518e-05, No Iterations 3
GAMG:  Solving for p, Initial residual = 0.00035668579, Final residual = 3.2701893e-06, No Iterations 3
GAMG:  Solving for p, Initial residual = 7.8831289e-05, Final residual = 7.0310594e-07, No Iterations 3
GAMG:  Solving for p, Initial residual = 1.8737352e-05, Final residual = 1.8383867e-07, No Iterations 3
GAMG:  Solving for p, Initial residual = 5.1149465e-06, Final residual = 4.652183e-08, No Iterations 3
time step continuity errors : sum local = 1.3641361e-08, global = -2.8331055e-09, cumulative = -1.4668199e-07
smoothSolver:  Solving for omega, Initial residual = 0.021057619, Final residual = 0.0014037254, No Iterations 3
smoothSolver:  Solving for k, Initial residual = 0.013528444, Final residual = 0.00087803563, No Iterations 3
ExecutionTime = 19.113 s  ClockTime = 19 s

forces forces write:
    Sum of forces
        Total    : (0.098051054 3.684023 -0.10487099)
        Pressure : (0.087261797 3.6891311 -0.10570467)
        Viscous  : (0.010789257 -0.0051081253 0.00083367549)
    Sum of moments
        Total    : (-2.3494874 0.10347636 0.49945822)
        Pressure : (-2.3515375 0.098890588 0.49590597)
        Viscous  : (0.002050052 0.0045857766 0.0035522477)


Time = 29

smoothSolver:  Solving for Ux, Initial residual = 0.0032560524, Final residual = 8.8488173e-05, No Iterations 2
smoothSolver:  Solving for Uy, Initial residual = 0.0026104298, Final residual = 6.5581107e-05, No Iterations 2
smoothSolver:  Solving for Uz, Initial residual = 0.007707319, Final residual = 0.00022349176, No Iterations 2
GAMG:  Solving for p, Initial residual = 0.035382124, Final residual = 0.00014905777, No Iterations 3
GAMG:  Solving for p, Initial residual = 0.0026156993, Final residual = 1.112571e-05, No Iterations 3
GAMG:  Solving for p, Initial residual = 0.00033105231, Final residual = 1.9441322e-06, No Iterations 3
GAMG:  Solving for p, Initial residual = 7.1800388e-05, Final residual = 4.2320529e-07, No Iterations 3
GAMG:  Solving for p, Initial residual = 1.7099501e-05, Final residual = 1.2168193e-07, No Iterations 3
GAMG:  Solving for p, Initial residual = 4.6456154e-06, Final residual = 3.2245403e-08, No Iterations 3
time step continuity errors : sum local = 9.4007634e-09, global = -2.1726527e-09, cumulative = -1.4885464e-07
smoothSolver:  Solving for omega, Initial residual = 0.020016999, Final residual = 0.0013349767, No Iterations 3
smoothSolver:  Solving for k, Initial residual = 0.013195267, Final residual = 0.00085595763, No Iterations 3
ExecutionTime = 19.633 s  ClockTime = 19 s

forces forces write:
    Sum of forces
        Total    : (0.099101439 3.6868019 -0.10444339)
        Pressure : (0.089093766 3.6916864 -0.10486589)
        Viscous  : (0.010007673 -0.0048845063 0.0004225028)
    Sum of moments
        Total    : (-2.352313 0.10398834 0.50549236)
        Pressure : (-2.3542524 0.099738463 0.50182762)
        Viscous  : (0.0019394369 0.004249876 0.0036647446)


Time = 30

smoothSolver:  Solving for Ux, Initial residual = 0.0032071102, Final residual = 8.5686168e-05, No Iterations 2
smoothSolver:  Solving for Uy, Initial residual = 0.0024579896, Final residual = 6.1090439e-05, No Iterations 2
smoothSolver:  Solving for Uz, Initial residual = 0.0076078295, Final residual = 0.00021884934, No Iterations 2
GAMG:  Solving for p, Initial residual = 0.033073719, Final residual = 0.00013373925, No Iterations 3
GAMG:  Solving for p, Initial residual = 0.0023843061, Final residual = 1.2010106e-05, No Iterations 3
GAMG:  Solving for p, Initial residual = 0.00030416745, Final residual = 2.3664154e-06, No Iterations 3
GAMG:  Solving for p, Initial residual = 6.7734274e-05, Final residual = 5.8614051e-07, No Iterations 3
GAMG:  Solving for p, Initial residual = 1.6043802e-05, Final residual = 6.7741622e-08, No Iterations 4
GAMG:  Solving for p, Initial residual = 4.3466409e-06, Final residual = 2.8329569e-08, No Iterations 3
time step continuity errors : sum local = 8.2013763e-09, global = -8.5719402e-10, cumulative = -1.4971184e-07
smoothSolver:  Solving for omega, Initial residual = 0.019049077, Final residual = 0.0012709381, No Iterations 3
smoothSolver:  Solving for k, Initial residual = 0.012889582, Final residual = 0.00083577701, No Iterations 3
ExecutionTime = 20.203 s  ClockTime = 20 s

forces forces write:
    Sum of forces
        Total    : (0.10032824 3.6886808 -0.10356298)
        Pressure : (0.091056393 3.6933651 -0.10358963)
        Viscous  : (0.0092718507 -0.0046842956 2.665482e-05)
    Sum of moments
        Total    : (-2.3539368 0.10433123 0.50928011)
        Pressure : (-2.3557852 0.10040895 0.50548178)
        Viscous  : (0.0018484387 0.0039222844 0.0037983333)


Time = 31

smoothSolver:  Solving for Ux, Initial residual = 0.0031319824, Final residual = 8.174979e-05, No Iterations 2
smoothSolver:  Solving for Uy, Initial residual = 0.002363315, Final residual = 5.9935264e-05, No Iterations 2
smoothSolver:  Solving for Uz, Initial residual = 0.0074435714, Final residual = 0.000211786, No Iterations 2
GAMG:  Solving for p, Initial residual = 0.030929848, Final residual = 0.00013953221, No Iterations 3
GAMG:  Solving for p, Initial residual = 0.0021965846, Final residual = 1.2370533e-05, No Iterations 3
GAMG:  Solving for p, Initial residual = 0.00028338169, Final residual = 2.3346088e-06, No Iterations 3
GAMG:  Solving for p, Initial residual = 6.4087571e-05, Final residual = 4.7918638e-07, No Iterations 3
GAMG:  Solving for p, Initial residual = 1.5188422e-05, Final residual = 1.2381201e-07, No Iterations 3
GAMG:  Solving for p, Initial residual = 4.2812955e-06, Final residual = 3.1245633e-08, No Iterations 3
time step continuity errors : sum local = 8.9758693e-09, global = 1.822796e-09, cumulative = -1.4788904e-07
smoothSolver:  Solving for omega, Initial residual = 0.018148133, Final residual = 0.0012111874, No Iterations 3
smoothSolver:  Solving for k, Initial residual = 0.012610422, Final residual = 0.00081739433, No Iterations 3
ExecutionTime = 20.983 s  ClockTime = 21 s

forces forces write:
    Sum of forces
        Total    : (0.10089852 3.6882748 -0.10280765)
        Pressure : (0.092361679 3.6927449 -0.10242592)
        Viscous  : (0.0085368454 -0.0044701075 -0.0003817268)
    Sum of moments
        Total    : (-2.3535025 0.10435338 0.50978246)
        Pressure : (-2.3552729 0.10075112 0.50582543)
        Viscous  : (0.0017703182 0.0036022672 0.0039570293)


Time = 32

smoothSolver:  Solving for Ux, Initial residual = 0.0030341277, Final residual = 7.779508e-05, No Iterations 2
smoothSolver:  Solving for Uy, Initial residual = 0.002273614, Final residual = 5.8153858e-05, No Iterations 2
smoothSolver:  Solving for Uz, Initial residual = 0.0071844496, Final residual = 0.00020217697, No Iterations 2
GAMG:  Solving for p, Initial residual = 0.028937105, Final residual = 0.00012609477, No Iterations 3
GAMG:  Solving for p, Initial residual = 0.0020900671, Final residual = 9.7800614e-06, No Iterations 3
GAMG:  Solving for p, Initial residual = 0.00027251514, Final residual = 1.8504355e-06, No Iterations 3
GAMG:  Solving for p, Initial residual = 6.1448738e-05, Final residual = 3.8194383e-07, No Iterations 3
GAMG:  Solving for p, Initial residual = 1.4756154e-05, Final residual = 1.0601087e-07, No Iterations 3
GAMG:  Solving for p, Initial residual = 4.1987419e-06, Final residual = 2.6720354e-08, No Iterations 3
time step continuity errors : sum local = 7.6174826e-09, global = 1.6177785e-09, cumulative = -1.4627126e-07
smoothSolver:  Solving for omega, Initial residual = 0.017307937, Final residual = 0.0011553699, No Iterations 3
smoothSolver:  Solving for k, Initial residual = 0.012354543, Final residual = 0.00080063779, No Iterations 3
ExecutionTime = 21.483 s  ClockTime = 21 s

forces forces write:
    Sum of forces
        Total    : (0.10068015 3.6857283 -0.10243514)
        Pressure : (0.092828378 3.6899767 -0.10171308)
        Viscous  : (0.0078517701 -0.0042483952 -0.00072206293)
    Sum of moments
        Total    : (-2.3514635 0.10413872 0.50813087)
        Pressure : (-2.3531632 0.1008462 0.50399384)
        Viscous  : (0.0016996597 0.0032925175 0.00413703)


Time = 33

smoothSolver:  Solving for Ux, Initial residual = 0.0029438708, Final residual = 7.459327e-05, No Iterations 2
smoothSolver:  Solving for Uy, Initial residual = 0.0021793285, Final residual = 5.5210063e-05, No Iterations 2
smoothSolver:  Solving for Uz, Initial residual = 0.0068845758, Final residual = 0.00019111566, No Iterations 2
GAMG:  Solving for p, Initial residual = 0.027376911, Final residual = 0.00010680574, No Iterations 3
GAMG:  Solving for p, Initial residual = 0.0019371625, Final residual = 8.2055313e-06, No Iterations 3
GAMG:  Solving for p, Initial residual = 0.00025437825, Final residual = 1.2120747e-06, No Iterations 3
GAMG:  Solving for p, Initial residual = 5.6605004e-05, Final residual = 5.6212048e-07, No Iterations 2
GAMG:  Solving for p, Initial residual = 1.3464016e-05, Final residual = 7.9447562e-08, No Iterations 3
GAMG:  Solving for p, Initial residual = 3.7427811e-06, Final residual = 1.4756355e-08, No Iterations 3
time step continuity errors : sum local = 4.1776141e-09, global = 1.1885455e-09, cumulative = -1.4508272e-07
smoothSolver:  Solving for omega, Initial residual = 0.016522959, Final residual = 0.0011031677, No Iterations 3
smoothSolver:  Solving for k, Initial residual = 0.012120463, Final residual = 0.00078541012, No Iterations 3
ExecutionTime = 22.097 s  ClockTime = 22 s

forces forces write:
    Sum of forces
        Total    : (0.10002513 3.6823151 -0.10244509)
        Pressure : (0.092822849 3.6863468 -0.10141066)
        Viscous  : (0.0072022822 -0.0040317769 -0.0010344284)
    Sum of moments
        Total    : (-2.3490273 0.10387261 0.50641973)
        Pressure : (-2.350657 0.10087848 0.5020832)
        Viscous  : (0.0016296827 0.0029941235 0.004336523)


Time = 34

smoothSolver:  Solving for Ux, Initial residual = 0.0028844084, Final residual = 7.2323958e-05, No Iterations 2
smoothSolver:  Solving for Uy, Initial residual = 0.0020641362, Final residual = 5.1862207e-05, No Iterations 2
smoothSolver:  Solving for Uz, Initial residual = 0.006634871, Final residual = 0.00018123066, No Iterations 2
GAMG:  Solving for p, Initial residual = 0.02602693, Final residual = 0.00010418555, No Iterations 3
GAMG:  Solving for p, Initial residual = 0.0017956103, Final residual = 8.4093941e-06, No Iterations 3
GAMG:  Solving for p, Initial residual = 0.00023779159, Final residual = 1.7034578e-06, No Iterations 3
GAMG:  Solving for p, Initial residual = 5.2978146e-05, Final residual = 3.6370015e-07, No Iterations 3
GAMG:  Solving for p, Initial residual = 1.2705583e-05, Final residual = 9.6827233e-08, No Iterations 3
GAMG:  Solving for p, Initial residual = 3.5072527e-06, Final residual = 2.5241138e-08, No Iterations 3
time step continuity errors : sum local = 7.1006655e-09, global = -1.4073938e-09, cumulative = -1.4649011e-07
smoothSolver:  Solving for omega, Initial residual = 0.01578783, Final residual = 0.0010542177, No Iterations 3
smoothSolver:  Solving for k, Initial residual = 0.011906114, Final residual = 0.00077155643, No Iterations 3
ExecutionTime = 23.03 s  ClockTime = 23 s

forces forces write:
    Sum of forces
        Total    : (0.099460079 3.6795523 -0.10258692)
        Pressure : (0.092865892 3.6833955 -0.1012833)
        Viscous  : (0.0065941864 -0.0038432577 -0.001303617)
    Sum of moments
        Total    : (-2.3473478 0.10369749 0.50623595)
        Pressure : (-2.3489108 0.10099191 0.50168217)
        Viscous  : (0.0015630211 0.0027055725 0.0045537817)


Time = 35

smoothSolver:  Solving for Ux, Initial residual = 0.0028411774, Final residual = 7.0165238e-05, No Iterations 2
smoothSolver:  Solving for Uy, Initial residual = 0.0019533013, Final residual = 4.9617873e-05, No Iterations 2
smoothSolver:  Solving for Uz, Initial residual = 0.0064563108, Final residual = 0.00017331994, No Iterations 2
GAMG:  Solving for p, Initial residual = 0.024654892, Final residual = 9.915116e-05, No Iterations 3
GAMG:  Solving for p, Initial residual = 0.0016551588, Final residual = 6.9863646e-06, No Iterations 3
GAMG:  Solving for p, Initial residual = 0.00021641427, Final residual = 1.3672988e-06, No Iterations 3
GAMG:  Solving for p, Initial residual = 4.9409917e-05, Final residual = 2.916649e-07, No Iterations 3
GAMG:  Solving for p, Initial residual = 1.1892032e-05, Final residual = 7.9047492e-08, No Iterations 3
GAMG:  Solving for p, Initial residual = 3.3551701e-06, Final residual = 2.198236e-08, No Iterations 3
time step continuity errors : sum local = 6.1481308e-09, global = -1.3317076e-09, cumulative = -1.4782182e-07
smoothSolver:  Solving for omega, Initial residual = 0.015098297, Final residual = 0.0010082133, No Iterations 3
smoothSolver:  Solving for k, Initial residual = 0.011710101, Final residual = 0.00075896892, No Iterations 3
ExecutionTime = 23.647 s  ClockTime = 23 s

forces forces write:
    Sum of forces
        Total    : (0.099287303 3.6782572 -0.10261317)
        Pressure : (0.093262209 3.6819521 -0.10110084)
        Viscous  : (0.0060250944 -0.0036949642 -0.0015123251)
    Sum of moments
        Total    : (-2.3468945 0.10364372 0.50784272)
        Pressure : (-2.3483956 0.10122164 0.50305863)
        Viscous  : (0.0015010608 0.0024220772 0.0047840829)


Time = 36

smoothSolver:  Solving for Ux, Initial residual = 0.0027901386, Final residual = 6.7798708e-05, No Iterations 2
smoothSolver:  Solving for Uy, Initial residual = 0.0018753257, Final residual = 4.7948514e-05, No Iterations 2
smoothSolver:  Solving for Uz, Initial residual = 0.0063067057, Final residual = 0.0001665381, No Iterations 2
GAMG:  Solving for p, Initial residual = 0.023353656, Final residual = 8.4715128e-05, No Iterations 3
GAMG:  Solving for p, Initial residual = 0.0015392622, Final residual = 6.2182163e-06, No Iterations 3
GAMG:  Solving for p, Initial residual = 0.0002029881, Final residual = 9.422701e-07, No Iterations 3
GAMG:  Solving for p, Initial residual = 4.6706411e-05, Final residual = 1.6194683e-07, No Iterations 3
GAMG:  Solving for p, Initial residual = 1.119263e-05, Final residual = 4.2093947e-08, No Iterations 3
GAMG:  Solving for p, Initial residual = 3.191635e-06, Final residual = 1.3698684e-08, No Iterations 3
time step continuity errors : sum local = 3.809614e-09, global = -1.2134728e-09, cumulative = -1.4903529e-07
smoothSolver:  Solving for omega, Initial residual = 0.014450025, Final residual = 0.00096489343, No Iterations 3
smoothSolver:  Solving for k, Initial residual = 0.011530575, Final residual = 0.00074752701, No Iterations 3
ExecutionTime = 24.452 s  ClockTime = 24 s

forces forces write:
    Sum of forces
        Total    : (0.099444402 3.678335 -0.10254518)
        Pressure : (0.093963971 3.6819044 -0.100771)
        Viscous  : (0.0054804312 -0.0035694603 -0.0017741772)
    Sum of moments
        Total    : (-2.3473988 0.1036502 0.51041487)
        Pressure : (-2.3488332 0.10150072 0.50538747)
        Viscous  : (0.0014343831 0.0021494856 0.0050273941)


Time = 37

smoothSolver:  Solving for Ux, Initial residual = 0.0027206857, Final residual = 6.5165483e-05, No Iterations 2
smoothSolver:  Solving for Uy, Initial residual = 0.0018078782, Final residual = 4.5191759e-05, No Iterations 2
smoothSolver:  Solving for Uz, Initial residual = 0.0061189679, Final residual = 0.00015862751, No Iterations 2
GAMG:  Solving for p, Initial residual = 0.022214093, Final residual = 6.9684699e-05, No Iterations 3
GAMG:  Solving for p, Initial residual = 0.0014158786, Final residual = 5.9416702e-06, No Iterations 3
GAMG:  Solving for p, Initial residual = 0.00019001758, Final residual = 1.003387e-06, No Iterations 3
GAMG:  Solving for p, Initial residual = 4.4075704e-05, Final residual = 2.4895013e-07, No Iterations 3
GAMG:  Solving for p, Initial residual = 1.0720047e-05, Final residual = 7.6460147e-08, No Iterations 3
GAMG:  Solving for p, Initial residual = 3.0512342e-06, Final residual = 2.266861e-08, No Iterations 3
time step continuity errors : sum local = 6.2672267e-09, global = 1.3378012e-09, cumulative = -1.4769749e-07
smoothSolver:  Solving for omega, Initial residual = 0.013839935, Final residual = 0.0009240827, No Iterations 3
smoothSolver:  Solving for k, Initial residual = 0.011366412, Final residual = 0.0007371327, No Iterations 3
ExecutionTime = 26.788 s  ClockTime = 26 s

forces forces write:
    Sum of forces
        Total    : (0.099676452 3.6789511 -0.10237437)
        Pressure : (0.094721993 3.6824035 -0.10030599)
        Viscous  : (0.0049544587 -0.0034523825 -0.0020683802)
    Sum of moments
        Total    : (-2.3481296 0.10361829 0.51279516)
        Pressure : (-2.3494946 0.10173004 0.50750963)
        Viscous  : (0.0013650423 0.0018882496 0.0052855321)


Time = 38

smoothSolver:  Solving for Ux, Initial residual = 0.0026404273, Final residual = 6.2516831e-05, No Iterations 2
smoothSolver:  Solving for Uy, Initial residual = 0.0017393956, Final residual = 4.201487e-05, No Iterations 2
smoothSolver:  Solving for Uz, Initial residual = 0.005873471, Final residual = 0.00014873437, No Iterations 2
GAMG:  Solving for p, Initial residual = 0.021231712, Final residual = 6.2257263e-05, No Iterations 3
GAMG:  Solving for p, Initial residual = 0.0013099891, Final residual = 5.047445e-06, No Iterations 3
GAMG:  Solving for p, Initial residual = 0.00018091182, Final residual = 1.0529146e-06, No Iterations 3
GAMG:  Solving for p, Initial residual = 4.2002226e-05, Final residual = 2.2365196e-07, No Iterations 3
GAMG:  Solving for p, Initial residual = 1.0237977e-05, Final residual = 6.6640287e-08, No Iterations 3
GAMG:  Solving for p, Initial residual = 2.886622e-06, Final residual = 1.8438689e-08, No Iterations 3
time step continuity errors : sum local = 5.0655294e-09, global = 1.1951557e-09, cumulative = -1.4650234e-07
smoothSolver:  Solving for omega, Initial residual = 0.013265256, Final residual = 0.0008856525, No Iterations 3
smoothSolver:  Solving for k, Initial residual = 0.011216554, Final residual = 0.00072769298, No Iterations 3
ExecutionTime = 27.486 s  ClockTime = 27 s

forces forces write:
    Sum of forces
        Total    : (0.09974611 3.6790902 -0.10211321)
        Pressure : (0.095290459 3.68245 -0.099789473)
        Viscous  : (0.0044556502 -0.0033597534 -0.0023237409)
    Sum of moments
        Total    : (-2.348402 0.10348071 0.51421383)
        Pressure : (-2.3497012 0.10184867 0.5086582)
        Viscous  : (0.0012992267 0.0016320374 0.0055556342)


Time = 39

smoothSolver:  Solving for Ux, Initial residual = 0.0025652954, Final residual = 6.0278007e-05, No Iterations 2
smoothSolver:  Solving for Uy, Initial residual = 0.0016652814, Final residual = 3.9315286e-05, No Iterations 2
smoothSolver:  Solving for Uz, Initial residual = 0.0056067307, Final residual = 0.000138688, No Iterations 2
GAMG:  Solving for p, Initial residual = 0.020280601, Final residual = 6.3486518e-05, No Iterations 3
GAMG:  Solving for p, Initial residual = 0.0012275607, Final residual = 4.457922e-06, No Iterations 3
GAMG:  Solving for p, Initial residual = 0.00017269796, Final residual = 7.1369891e-07, No Iterations 3
GAMG:  Solving for p, Initial residual = 4.0616209e-05, Final residual = 3.6974664e-07, No Iterations 2
GAMG:  Solving for p, Initial residual = 1.0001135e-05, Final residual = 6.5141091e-08, No Iterations 3
GAMG:  Solving for p, Initial residual = 2.876896e-06, Final residual = 1.3942126e-08, No Iterations 3
time step continuity errors : sum local = 3.8040802e-09, global = 1.1959959e-09, cumulative = -1.4530634e-07
smoothSolver:  Solving for omega, Initial residual = 0.012723475, Final residual = 0.00084941067, No Iterations 3
smoothSolver:  Solving for k, Initial residual = 0.011079175, Final residual = 0.00071907792, No Iterations 3
ExecutionTime = 28.183 s  ClockTime = 28 s

forces forces write:
    Sum of forces
        Total    : (0.09956188 3.6783387 -0.10189294)
        Pressure : (0.095588232 3.6816238 -0.099306702)
        Viscous  : (0.0039736488 -0.0032851505 -0.0025862421)
    Sum of moments
        Total    : (-2.3480256 0.10325107 0.5147115)
        Pressure : (-2.3492548 0.101868 0.50887346)
        Viscous  : (0.0012292075 0.0013830709 0.0058380374)


Time = 40

smoothSolver:  Solving for Ux, Initial residual = 0.0025097721, Final residual = 5.8445433e-05, No Iterations 2
smoothSolver:  Solving for Uy, Initial residual = 0.0015879595, Final residual = 3.6999096e-05, No Iterations 2
smoothSolver:  Solving for Uz, Initial residual = 0.0053622633, Final residual = 0.00013010392, No Iterations 2
GAMG:  Solving for p, Initial residual = 0.019399387, Final residual = 6.2513441e-05, No Iterations 3
GAMG:  Solving for p, Initial residual = 0.0011426659, Final residual = 4.6638217e-06, No Iterations 3
GAMG:  Solving for p, Initial residual = 0.00016097802, Final residual = 9.2314486e-07, No Iterations 3
GAMG:  Solving for p, Initial residual = 3.9274716e-05, Final residual = 1.883185e-07, No Iterations 3
GAMG:  Solving for p, Initial residual = 9.642214e-06, Final residual = 5.4310909e-08, No Iterations 3
GAMG:  Solving for p, Initial residual = 2.791017e-06, Final residual = 1.5781095e-08, No Iterations 3
time step continuity errors : sum local = 4.2751794e-09, global = 1.0528121e-09, cumulative = -1.4425353e-07
smoothSolver:  Solving for omega, Initial residual = 0.012211634, Final residual = 0.00081521505, No Iterations 3
smoothSolver:  Solving for k, Initial residual = 0.010954444, Final residual = 0.00071126885, No Iterations 3
ExecutionTime = 29.439 s  ClockTime = 29 s

forces forces write:
    Sum of forces
        Total    : (0.099204709 3.6769347 -0.10174052)
        Pressure : (0.095702614 3.6801295 -0.098880675)
        Viscous  : (0.0035020949 -0.0031948078 -0.0028598488)
    Sum of moments
        Total    : (-2.3472457 0.10298457 0.51487301)
        Pressure : (-2.3483956 0.10184275 0.50873683)
        Viscous  : (0.0011498853 0.0011418282 0.0061361864)


Time = 41

smoothSolver:  Solving for Ux, Initial residual = 0.0024611426, Final residual = 5.6794933e-05, No Iterations 2
smoothSolver:  Solving for Uy, Initial residual = 0.0015155827, Final residual = 3.5123938e-05, No Iterations 2
smoothSolver:  Solving for Uz, Initial residual = 0.0051577533, Final residual = 0.00012319964, No Iterations 2
GAMG:  Solving for p, Initial residual = 0.018595834, Final residual = 5.9816116e-05, No Iterations 3
GAMG:  Solving for p, Initial residual = 0.0010686459, Final residual = 5.1377521e-06, No Iterations 3
GAMG:  Solving for p, Initial residual = 0.00015115485, Final residual = 1.3106422e-06, No Iterations 3
GAMG:  Solving for p, Initial residual = 3.679759e-05, Final residual = 3.6174015e-07, No Iterations 3
GAMG:  Solving for p, Initial residual = 9.1841226e-06, Final residual = 4.6676968e-08, No Iterations 4
GAMG:  Solving for p, Initial residual = 2.6195682e-06, Final residual = 1.8460372e-08, No Iterations 3
time step continuity errors : sum local = 4.9658538e-09, global = -9.5821424e-12, cumulative = -1.4426311e-07
smoothSolver:  Solving for omega, Initial residual = 0.011727936, Final residual = 0.00078289982, No Iterations 3
smoothSolver:  Solving for k, Initial residual = 0.01084036, Final residual = 0.00070412015, No Iterations 3
ExecutionTime = 29.959 s  ClockTime = 29 s

forces forces write:
    Sum of forces
        Total    : (0.09884269 3.6754943 -0.10158038)
        Pressure : (0.095794196 3.6785946 -0.098465798)
        Viscous  : (0.0030484938 -0.0031003019 -0.003114585)
    Sum of moments
        Total    : (-2.3465132 0.10272942 0.51535919)
        Pressure : (-2.3475731 0.10182308 0.50891304)
        Viscous  : (0.0010598691 0.00090634154 0.0064461524)


Time = 42

smoothSolver:  Solving for Ux, Initial residual = 0.0024071537, Final residual = 5.5125584e-05, No Iterations 2
smoothSolver:  Solving for Uy, Initial residual = 0.0014590978, Final residual = 3.3957855e-05, No Iterations 2
smoothSolver:  Solving for Uz, Initial residual = 0.0049707101, Final residual = 0.00011727096, No Iterations 2
GAMG:  Solving for p, Initial residual = 0.01781256, Final residual = 5.5808063e-05, No Iterations 3
GAMG:  Solving for p, Initial residual = 0.0010204193, Final residual = 4.1306659e-06, No Iterations 3
GAMG:  Solving for p, Initial residual = 0.00014732625, Final residual = 9.6670233e-07, No Iterations 3
GAMG:  Solving for p, Initial residual = 3.5207772e-05, Final residual = 2.3835448e-07, No Iterations 3
GAMG:  Solving for p, Initial residual = 8.756188e-06, Final residual = 6.9054071e-08, No Iterations 3
GAMG:  Solving for p, Initial residual = 2.4811512e-06, Final residual = 1.9705553e-08, No Iterations 3
time step continuity errors : sum local = 5.2661329e-09, global = -1.173303e-09, cumulative = -1.4543641e-07
smoothSolver:  Solving for omega, Initial residual = 0.011270167, Final residual = 0.00075226635, No Iterations 3
smoothSolver:  Solving for k, Initial residual = 0.010737016, Final residual = 0.00069762474, No Iterations 3
ExecutionTime = 30.496 s  ClockTime = 30 s

forces forces write:
    Sum of forces
        Total    : (0.098590546 3.6746726 -0.10138074)
        Pressure : (0.095979338 3.6776656 -0.098014621)
        Viscous  : (0.0026112083 -0.0029929263 -0.0033661147)
    Sum of moments
        Total    : (-2.3462243 0.10250642 0.51652295)
        Pressure : (-2.3471769 0.10182912 0.50975604)
        Viscous  : (0.00095265735 0.00067729873 0.0067669167)


Time = 43

smoothSolver:  Solving for Ux, Initial residual = 0.0023363562, Final residual = 5.3040081e-05, No Iterations 2
smoothSolver:  Solving for Uy, Initial residual = 0.0014066075, Final residual = 3.2693818e-05, No Iterations 2
smoothSolver:  Solving for Uz, Initial residual = 0.0047781408, Final residual = 0.00011202638, No Iterations 2
GAMG:  Solving for p, Initial residual = 0.017012965, Final residual = 4.8996355e-05, No Iterations 3
GAMG:  Solving for p, Initial residual = 0.00098339507, Final residual = 3.5799016e-06, No Iterations 3
GAMG:  Solving for p, Initial residual = 0.00014218409, Final residual = 6.7721904e-07, No Iterations 3
GAMG:  Solving for p, Initial residual = 3.3456817e-05, Final residual = 1.628805e-07, No Iterations 3
GAMG:  Solving for p, Initial residual = 8.1575667e-06, Final residual = 4.2881009e-08, No Iterations 3
GAMG:  Solving for p, Initial residual = 2.2863656e-06, Final residual = 1.4536553e-08, No Iterations 3
time step continuity errors : sum local = 3.8619024e-09, global = -1.0537924e-09, cumulative = -1.4649021e-07
smoothSolver:  Solving for omega, Initial residual = 0.010836659, Final residual = 0.00072321581, No Iterations 3
smoothSolver:  Solving for k, Initial residual = 0.010643577, Final residual = 0.00069172126, No Iterations 3
ExecutionTime = 31.106 s  ClockTime = 31 s

forces forces write:
    Sum of forces
        Total    : (0.09847263 3.6747213 -0.10109747)
        Pressure : (0.096278675 3.6776057 -0.097499772)
        Viscous  : (0.0021939549 -0.0028843838 -0.0035977003)
    Sum of moments
        Total    : (-2.3464693 0.10229678 0.51826927)
        Pressure : (-2.3472968 0.10184459 0.51117514)
        Viscous  : (0.0008275453 0.00045219244 0.0070941381)


Time = 44

smoothSolver:  Solving for Ux, Initial residual = 0.0022566795, Final residual = 5.0616252e-05, No Iterations 2
smoothSolver:  Solving for Uy, Initial residual = 0.0013521006, Final residual = 3.1240829e-05, No Iterations 2
smoothSolver:  Solving for Uz, Initial residual = 0.0045755359, Final residual = 0.00010680949, No Iterations 2
GAMG:  Solving for p, Initial residual = 0.016256365, Final residual = 4.3525439e-05, No Iterations 3
GAMG:  Solving for p, Initial residual = 0.00092104581, Final residual = 3.3405363e-06, No Iterations 3
GAMG:  Solving for p, Initial residual = 0.00013342115, Final residual = 6.5937027e-07, No Iterations 3
GAMG:  Solving for p, Initial residual = 3.1701301e-05, Final residual = 1.4006963e-07, No Iterations 3
GAMG:  Solving for p, Initial residual = 7.8292417e-06, Final residual = 3.3141085e-08, No Iterations 3
GAMG:  Solving for p, Initial residual = 2.215449e-06, Final residual = 9.2390938e-09, No Iterations 3
time step continuity errors : sum local = 2.4410216e-09, global = -1.0292527e-09, cumulative = -1.4751946e-07
smoothSolver:  Solving for omega, Initial residual = 0.010426186, Final residual = 0.00069561653, No Iterations 3
smoothSolver:  Solving for k, Initial residual = 0.010558703, Final residual = 0.0006863074, No Iterations 3
ExecutionTime = 31.594 s  ClockTime = 31 s

forces forces write:
    Sum of forces
        Total    : (0.098405031 3.6754364 -0.10076279)
        Pressure : (0.096620541 3.6781828 -0.096926969)
        Viscous  : (0.0017844899 -0.0027464527 -0.0038358241)
    Sum of moments
        Total    : (-2.3470384 0.10206586 0.52018846)
        Pressure : (-2.3477196 0.1018332 0.51275737)
        Viscous  : (0.00068119262 0.00023265781 0.0074310849)


Time = 45

smoothSolver:  Solving for Ux, Initial residual = 0.0021837207, Final residual = 4.8392831e-05, No Iterations 2
smoothSolver:  Solving for Uy, Initial residual = 0.0012922604, Final residual = 2.9266229e-05, No Iterations 2
smoothSolver:  Solving for Uz, Initial residual = 0.0043727547, Final residual = 0.00010152472, No Iterations 2
GAMG:  Solving for p, Initial residual = 0.015528431, Final residual = 3.9471598e-05, No Iterations 3
GAMG:  Solving for p, Initial residual = 0.00085171873, Final residual = 3.1317067e-06, No Iterations 3
GAMG:  Solving for p, Initial residual = 0.00012510121, Final residual = 6.7532536e-07, No Iterations 3
GAMG:  Solving for p, Initial residual = 2.9921728e-05, Final residual = 1.4002311e-07, No Iterations 3
GAMG:  Solving for p, Initial residual = 7.4429113e-06, Final residual = 3.7644441e-08, No Iterations 3
GAMG:  Solving for p, Initial residual = 2.1431076e-06, Final residual = 9.9823673e-09, No Iterations 3
time step continuity errors : sum local = 2.6230713e-09, global = -8.1819194e-10, cumulative = -1.4833765e-07
[...]
smoothSolver:  Solving for k, Initial residual = 0.0014409159, Final residual = 7.1362838e-05, No Iterations 3
ExecutionTime = 133.493 s  ClockTime = 133 s

forces forces write:
    Sum of forces
        Total    : (0.097152812 3.7433362 -0.058188315)
        Pressure : (0.10085468 3.697 -0.059881878)
        Viscous  : (-0.003701866 0.046336166 0.0016935631)
    Sum of moments
        Total    : (-2.3752014 0.07375428 0.58557004)
        Pressure : (-2.3475572 0.081978501 0.53793105)
        Viscous  : (-0.027644248 -0.0082242209 0.047638984)


Time = 148

smoothSolver:  Solving for Ux, Initial residual = 0.00013177404, Final residual = 3.2838329e-06, No Iterations 2
smoothSolver:  Solving for Uy, Initial residual = 0.00011863939, Final residual = 3.8029769e-06, No Iterations 2
smoothSolver:  Solving for Uz, Initial residual = 0.00033141904, Final residual = 1.0294633e-05, No Iterations 2
GAMG:  Solving for p, Initial residual = 0.00056651005, Final residual = 3.877676e-06, No Iterations 3
GAMG:  Solving for p, Initial residual = 4.5332049e-05, Final residual = 3.3278857e-07, No Iterations 4
GAMG:  Solving for p, Initial residual = 7.4447514e-06, Final residual = 5.5574891e-08, No Iterations 4
GAMG:  Solving for p, Initial residual = 1.8931422e-06, Final residual = 9.3960868e-09, No Iterations 4
GAMG:  Solving for p, Initial residual = 5.0832757e-07, Final residual = 8.0203474e-09, No Iterations 2
GAMG:  Solving for p, Initial residual = 1.5490929e-07, Final residual = 9.2064498e-09, No Iterations 1
time step continuity errors : sum local = 1.6522235e-09, global = -1.664733e-10, cumulative = -1.4943595e-07
smoothSolver:  Solving for omega, Initial residual = 0.00021228733, Final residual = 1.1157148e-05, No Iterations 3
smoothSolver:  Solving for k, Initial residual = 0.0013888084, Final residual = 6.8747659e-05, No Iterations 3
ExecutionTime = 134.024 s  ClockTime = 134 s

forces forces write:
    Sum of forces
        Total    : (0.097182977 3.7435561 -0.058099714)
        Pressure : (0.10088777 3.6971335 -0.059813767)
        Viscous  : (-0.0037047929 0.046422559 0.0017140533)
    Sum of moments
        Total    : (-2.3752868 0.073703704 0.58573194)
        Pressure : (-2.3475804 0.081930512 0.5380264)
        Viscous  : (-0.027706407 -0.008226808 0.047705542)


Time = 149

smoothSolver:  Solving for Ux, Initial residual = 0.00012827919, Final residual = 3.2041792e-06, No Iterations 2
smoothSolver:  Solving for Uy, Initial residual = 0.00011558289, Final residual = 3.7032184e-06, No Iterations 2
smoothSolver:  Solving for Uz, Initial residual = 0.00032309689, Final residual = 1.0038534e-05, No Iterations 2
GAMG:  Solving for p, Initial residual = 0.0005486818, Final residual = 3.7075188e-06, No Iterations 3
GAMG:  Solving for p, Initial residual = 4.3367608e-05, Final residual = 3.1181638e-07, No Iterations 4
GAMG:  Solving for p, Initial residual = 7.0009228e-06, Final residual = 5.269239e-08, No Iterations 4
GAMG:  Solving for p, Initial residual = 1.7831351e-06, Final residual = 8.4211698e-09, No Iterations 4
GAMG:  Solving for p, Initial residual = 4.7786829e-07, Final residual = 7.5578748e-09, No Iterations 2
GAMG:  Solving for p, Initial residual = 1.4586358e-07, Final residual = 8.5129481e-09, No Iterations 1
time step continuity errors : sum local = 1.5264551e-09, global = -1.4636531e-10, cumulative = -1.4958231e-07
smoothSolver:  Solving for omega, Initial residual = 0.00020804683, Final residual = 1.0952673e-05, No Iterations 3
smoothSolver:  Solving for k, Initial residual = 0.001338808, Final residual = 6.6245801e-05, No Iterations 3
ExecutionTime = 134.623 s  ClockTime = 134 s

forces forces write:
    Sum of forces
        Total    : (0.09721263 3.7437703 -0.058016459)
        Pressure : (0.10091908 3.6972612 -0.059749441)
        Viscous  : (-0.003706452 0.046509177 0.0017329819)
    Sum of moments
        Total    : (-2.3753701 0.073656952 0.58588967)
        Pressure : (-2.3476034 0.081885412 0.53811708)
        Viscous  : (-0.027766699 -0.00822846 0.047772593)


Time = 150

smoothSolver:  Solving for Ux, Initial residual = 0.00012486029, Final residual = 3.1265646e-06, No Iterations 2
smoothSolver:  Solving for Uy, Initial residual = 0.00011258376, Final residual = 3.6040784e-06, No Iterations 2
smoothSolver:  Solving for Uz, Initial residual = 0.00031486915, Final residual = 9.7807222e-06, No Iterations 2
GAMG:  Solving for p, Initial residual = 0.00053174259, Final residual = 3.5444774e-06, No Iterations 3
GAMG:  Solving for p, Initial residual = 4.1608201e-05, Final residual = 2.9065522e-07, No Iterations 4
GAMG:  Solving for p, Initial residual = 6.6245455e-06, Final residual = 5.0647403e-08, No Iterations 4
GAMG:  Solving for p, Initial residual = 1.6985994e-06, Final residual = 7.7007243e-09, No Iterations 4
GAMG:  Solving for p, Initial residual = 4.4898209e-07, Final residual = 7.2146613e-09, No Iterations 2
GAMG:  Solving for p, Initial residual = 1.3679552e-07, Final residual = 7.9694698e-09, No Iterations 1
time step continuity errors : sum local = 1.4278359e-09, global = -1.3296807e-10, cumulative = -1.4971528e-07
smoothSolver:  Solving for omega, Initial residual = 0.0002039658, Final residual = 1.0754821e-05, No Iterations 3
smoothSolver:  Solving for k, Initial residual = 0.0012908379, Final residual = 6.3852552e-05, No Iterations 3
ExecutionTime = 135.266 s  ClockTime = 135 s

forces forces write:
    Sum of forces
        Total    : (0.097242017 3.7439798 -0.057938164)
        Pressure : (0.10094892 3.6973835 -0.059688732)
        Viscous  : (-0.0037069025 0.046596281 0.0017505685)
    Sum of moments
        Total    : (-2.3754511 0.073613771 0.5860441)
        Pressure : (-2.3476259 0.081843083 0.53820376)
        Viscous  : (-0.027825175 -0.0082293127 0.047840339)


Time = 151

smoothSolver:  Solving for Ux, Initial residual = 0.00012152032, Final residual = 3.0502971e-06, No Iterations 2
smoothSolver:  Solving for Uy, Initial residual = 0.00010963401, Final residual = 3.5047863e-06, No Iterations 2
smoothSolver:  Solving for Uz, Initial residual = 0.00030678702, Final residual = 9.524568e-06, No Iterations 2
GAMG:  Solving for p, Initial residual = 0.00051528362, Final residual = 3.387797e-06, No Iterations 3
GAMG:  Solving for p, Initial residual = 3.9988572e-05, Final residual = 2.7187817e-07, No Iterations 4
GAMG:  Solving for p, Initial residual = 6.2951881e-06, Final residual = 4.7894241e-08, No Iterations 4
GAMG:  Solving for p, Initial residual = 1.6163165e-06, Final residual = 1.5734927e-08, No Iterations 3
GAMG:  Solving for p, Initial residual = 4.2972941e-07, Final residual = 6.3292573e-09, No Iterations 3
GAMG:  Solving for p, Initial residual = 1.3263549e-07, Final residual = 8.6295263e-09, No Iterations 1
time step continuity errors : sum local = 1.544888e-09, global = -2.7196557e-10, cumulative = -1.4998724e-07
smoothSolver:  Solving for omega, Initial residual = 0.00020003174, Final residual = 1.0562226e-05, No Iterations 3
smoothSolver:  Solving for k, Initial residual = 0.0012448259, Final residual = 6.1563245e-05, No Iterations 3
ExecutionTime = 135.833 s  ClockTime = 135 s

forces forces write:
    Sum of forces
        Total    : (0.097270997 3.7441837 -0.057864671)
        Pressure : (0.10097728 3.6975006 -0.059631128)
        Viscous  : (-0.0037062794 0.0466831 0.0017664569)
    Sum of moments
        Total    : (-2.3755298 0.073573995 0.58619452)
        Pressure : (-2.347648 0.081803088 0.53828648)
        Viscous  : (-0.027881884 -0.0082290938 0.047908039)


Time = 152

smoothSolver:  Solving for Ux, Initial residual = 0.00011826725, Final residual = 2.9756289e-06, No Iterations 2
smoothSolver:  Solving for Uy, Initial residual = 0.00010670015, Final residual = 3.4058991e-06, No Iterations 2
smoothSolver:  Solving for Uz, Initial residual = 0.00029880803, Final residual = 9.2693116e-06, No Iterations 2
GAMG:  Solving for p, Initial residual = 0.00049850932, Final residual = 3.2422336e-06, No Iterations 3
GAMG:  Solving for p, Initial residual = 3.8315487e-05, Final residual = 2.5501915e-07, No Iterations 4
GAMG:  Solving for p, Initial residual = 5.9680062e-06, Final residual = 4.5768173e-08, No Iterations 4
GAMG:  Solving for p, Initial residual = 1.5381227e-06, Final residual = 1.5363015e-08, No Iterations 3
GAMG:  Solving for p, Initial residual = 4.0968451e-07, Final residual = 6.2557065e-09, No Iterations 3
GAMG:  Solving for p, Initial residual = 1.2615798e-07, Final residual = 8.3588344e-09, No Iterations 1
time step continuity errors : sum local = 1.4953155e-09, global = -2.6877405e-10, cumulative = -1.5025602e-07
smoothSolver:  Solving for omega, Initial residual = 0.00019623408, Final residual = 1.0374217e-05, No Iterations 3
smoothSolver:  Solving for k, Initial residual = 0.0012006998, Final residual = 5.9373193e-05, No Iterations 3
ExecutionTime = 136.343 s  ClockTime = 136 s

forces forces write:
    Sum of forces
        Total    : (0.097299219 3.7443815 -0.05779546)
        Pressure : (0.10100404 3.6976124 -0.059576237)
        Viscous  : (-0.0037048244 0.046769105 0.0017807774)
    Sum of moments
        Total    : (-2.3756066 0.073537212 0.58634027)
        Pressure : (-2.3476698 0.081765087 0.53836507)
        Viscous  : (-0.027936832 -0.008227875 0.047975207)


Time = 153

smoothSolver:  Solving for Ux, Initial residual = 0.00011510527, Final residual = 2.9026078e-06, No Iterations 2
smoothSolver:  Solving for Uy, Initial residual = 0.00010381349, Final residual = 3.3092345e-06, No Iterations 2
smoothSolver:  Solving for Uz, Initial residual = 0.00029097343, Final residual = 9.0163214e-06, No Iterations 2
GAMG:  Solving for p, Initial residual = 0.00048128183, Final residual = 3.0875192e-06, No Iterations 3
GAMG:  Solving for p, Initial residual = 3.6456612e-05, Final residual = 2.3743545e-07, No Iterations 4
GAMG:  Solving for p, Initial residual = 5.6512675e-06, Final residual = 4.3158698e-08, No Iterations 4
GAMG:  Solving for p, Initial residual = 1.4386873e-06, Final residual = 1.4261875e-08, No Iterations 3
GAMG:  Solving for p, Initial residual = 3.7707686e-07, Final residual = 5.7259877e-09, No Iterations 3
GAMG:  Solving for p, Initial residual = 1.1452524e-07, Final residual = 7.5525545e-09, No Iterations 1
time step continuity errors : sum local = 1.3501228e-09, global = -2.4237133e-10, cumulative = -1.5049839e-07
smoothSolver:  Solving for omega, Initial residual = 0.0001925544, Final residual = 1.0190671e-05, No Iterations 3
smoothSolver:  Solving for k, Initial residual = 0.0011583748, Final residual = 5.7277645e-05, No Iterations 3
ExecutionTime = 137.2 s  ClockTime = 137 s

forces forces write:
    Sum of forces
        Total    : (0.097326394 3.7445736 -0.057729451)
        Pressure : (0.10102886 3.6977189 -0.059523756)
        Viscous  : (-0.0037024645 0.046854706 0.0017943049)
    Sum of moments
        Total    : (-2.3756818 0.073502466 0.58648114)
        Pressure : (-2.3476918 0.081728781 0.53843894)
        Viscous  : (-0.027990037 -0.0082263146 0.048042195)


Time = 154

smoothSolver:  Solving for Ux, Initial residual = 0.00011203544, Final residual = 2.8316024e-06, No Iterations 2
smoothSolver:  Solving for Uy, Initial residual = 0.00010098938, Final residual = 3.2140058e-06, No Iterations 2
smoothSolver:  Solving for Uz, Initial residual = 0.00028327412, Final residual = 8.7657626e-06, No Iterations 2
GAMG:  Solving for p, Initial residual = 0.00046449704, Final residual = 2.9348831e-06, No Iterations 3
GAMG:  Solving for p, Initial residual = 3.4718725e-05, Final residual = 2.2038076e-07, No Iterations 4
GAMG:  Solving for p, Initial residual = 5.4091803e-06, Final residual = 4.0303208e-08, No Iterations 4
GAMG:  Solving for p, Initial residual = 1.372415e-06, Final residual = 1.3264943e-08, No Iterations 3
GAMG:  Solving for p, Initial residual = 3.6430813e-07, Final residual = 5.4010577e-09, No Iterations 3
GAMG:  Solving for p, Initial residual = 1.0971638e-07, Final residual = 7.1548074e-09, No Iterations 1
time step continuity errors : sum local = 1.2781554e-09, global = -2.2821342e-10, cumulative = -1.507266e-07
smoothSolver:  Solving for omega, Initial residual = 0.00018897322, Final residual = 1.0011106e-05, No Iterations 3
smoothSolver:  Solving for k, Initial residual = 0.0011177916, Final residual = 5.5272804e-05, No Iterations 3
ExecutionTime = 137.732 s  ClockTime = 137 s

forces forces write:
    Sum of forces
        Total    : (0.097352447 3.7447603 -0.05766658)
        Pressure : (0.10105175 3.6978204 -0.059473801)
        Viscous  : (-0.0036993007 0.04693986 0.0018072209)
    Sum of moments
        Total    : (-2.3757555 0.073469689 0.58661717)
        Pressure : (-2.347714 0.081694262 0.53850822)
        Viscous  : (-0.028041519 -0.0082245723 0.048108948)


Time = 155

smoothSolver:  Solving for Ux, Initial residual = 0.00010906051, Final residual = 2.7624333e-06, No Iterations 2
smoothSolver:  Solving for Uy, Initial residual = 9.8223448e-05, Final residual = 3.1205001e-06, No Iterations 2
smoothSolver:  Solving for Uz, Initial residual = 0.0002756744, Final residual = 8.5179317e-06, No Iterations 2
GAMG:  Solving for p, Initial residual = 0.00044851655, Final residual = 2.7950817e-06, No Iterations 3
GAMG:  Solving for p, Initial residual = 3.3150492e-05, Final residual = 2.0642494e-07, No Iterations 4
GAMG:  Solving for p, Initial residual = 5.227614e-06, Final residual = 3.7696272e-08, No Iterations 4
GAMG:  Solving for p, Initial residual = 1.3287546e-06, Final residual = 1.2548375e-08, No Iterations 3
GAMG:  Solving for p, Initial residual = 3.5527533e-07, Final residual = 9.5550611e-09, No Iterations 2
GAMG:  Solving for p, Initial residual = 1.0918982e-07, Final residual = 9.2401197e-09, No Iterations 1
time step continuity errors : sum local = 1.6496166e-09, global = -3.2245363e-10, cumulative = -1.5104906e-07
smoothSolver:  Solving for omega, Initial residual = 0.00018548332, Final residual = 9.8359962e-06, No Iterations 3
smoothSolver:  Solving for k, Initial residual = 0.0010788813, Final residual = 5.3354564e-05, No Iterations 3
ExecutionTime = 138.259 s  ClockTime = 138 s

forces forces write:
    Sum of forces
        Total    : (0.097377665 3.7449421 -0.057606535)
        Pressure : (0.10107304 3.6979175 -0.059426357)
        Viscous  : (-0.0036953735 0.047024661 0.0018198222)
    Sum of moments
        Total    : (-2.3758278 0.073438665 0.5867491)
        Pressure : (-2.3477364 0.081661541 0.53857358)
        Viscous  : (-0.028091356 -0.0082228763 0.048175523)


Time = 156

smoothSolver:  Solving for Ux, Initial residual = 0.00010617042, Final residual = 2.6946701e-06, No Iterations 2
smoothSolver:  Solving for Uy, Initial residual = 9.5503514e-05, Final residual = 3.0281471e-06, No Iterations 2
smoothSolver:  Solving for Uz, Initial residual = 0.00026820885, Final residual = 8.2735368e-06, No Iterations 2
GAMG:  Solving for p, Initial residual = 0.00043345129, Final residual = 2.6706517e-06, No Iterations 3
GAMG:  Solving for p, Initial residual = 3.1743352e-05, Final residual = 1.9469097e-07, No Iterations 4
GAMG:  Solving for p, Initial residual = 5.0384934e-06, Final residual = 3.5602937e-08, No Iterations 4
GAMG:  Solving for p, Initial residual = 1.2887878e-06, Final residual = 1.1952688e-08, No Iterations 3
GAMG:  Solving for p, Initial residual = 3.4358015e-07, Final residual = 9.1179544e-09, No Iterations 2
GAMG:  Solving for p, Initial residual = 1.0593175e-07, Final residual = 8.8872986e-09, No Iterations 1
time step continuity errors : sum local = 1.5856519e-09, global = -3.0393223e-10, cumulative = -1.5135299e-07
smoothSolver:  Solving for omega, Initial residual = 0.00018206863, Final residual = 9.6645048e-06, No Iterations 3
smoothSolver:  Solving for k, Initial residual = 0.0010415736, Final residual = 5.1518768e-05, No Iterations 3
ExecutionTime = 139.088 s  ClockTime = 139 s

forces forces write:
    Sum of forces
        Total    : (0.097402012 3.7451195 -0.057549587)
        Pressure : (0.10109297 3.6980103 -0.059381303)
        Viscous  : (-0.0036909604 0.047109261 0.0018317161)
    Sum of moments
        Total    : (-2.3758983 0.073409629 0.58687761)
        Pressure : (-2.3477587 0.081630592 0.53863546)
        Viscous  : (-0.028139637 -0.0082209626 0.048242148)


Time = 157

smoothSolver:  Solving for Ux, Initial residual = 0.00010336546, Final residual = 2.628441e-06, No Iterations 2
smoothSolver:  Solving for Uy, Initial residual = 9.2824731e-05, Final residual = 2.9373338e-06, No Iterations 2
smoothSolver:  Solving for Uz, Initial residual = 0.00026086605, Final residual = 8.031468e-06, No Iterations 2
GAMG:  Solving for p, Initial residual = 0.00041961865, Final residual = 2.5597721e-06, No Iterations 3
GAMG:  Solving for p, Initial residual = 3.0481358e-05, Final residual = 1.857311e-07, No Iterations 4
GAMG:  Solving for p, Initial residual = 4.8489203e-06, Final residual = 3.3723571e-08, No Iterations 4
GAMG:  Solving for p, Initial residual = 1.2317892e-06, Final residual = 1.1742011e-08, No Iterations 3
GAMG:  Solving for p, Initial residual = 3.3591865e-07, Final residual = 8.8899298e-09, No Iterations 2
GAMG:  Solving for p, Initial residual = 1.0320106e-07, Final residual = 8.7642428e-09, No Iterations 1
time step continuity errors : sum local = 1.5627805e-09, global = -2.9408579e-10, cumulative = -1.5164707e-07
smoothSolver:  Solving for omega, Initial residual = 0.00017873222, Final residual = 9.496182e-06, No Iterations 3
smoothSolver:  Solving for k, Initial residual = 0.0010058077, Final residual = 4.9761715e-05, No Iterations 3
ExecutionTime = 139.578 s  ClockTime = 139 s

forces forces write:
    Sum of forces
        Total    : (0.097425795 3.7452923 -0.057495775)
        Pressure : (0.10111179 3.6980993 -0.059338589)
        Viscous  : (-0.0036859911 0.047193013 0.0018428143)
    Sum of moments
        Total    : (-2.3759671 0.073382678 0.58700255)
        Pressure : (-2.3477808 0.081601418 0.53869433)
        Viscous  : (-0.028186351 -0.0082187394 0.048308214)


Time = 158

smoothSolver:  Solving for Ux, Initial residual = 0.00010064435, Final residual = 2.5636639e-06, No Iterations 2
smoothSolver:  Solving for Uy, Initial residual = 9.0182368e-05, Final residual = 2.8478905e-06, No Iterations 2
smoothSolver:  Solving for Uz, Initial residual = 0.00025367988, Final residual = 7.7934874e-06, No Iterations 2
GAMG:  Solving for p, Initial residual = 0.00040709631, Final residual = 2.459883e-06, No Iterations 3
GAMG:  Solving for p, Initial residual = 2.9410327e-05, Final residual = 1.7773214e-07, No Iterations 4
GAMG:  Solving for p, Initial residual = 4.6765142e-06, Final residual = 3.2540478e-08, No Iterations 4
GAMG:  Solving for p, Initial residual = 1.1916687e-06, Final residual = 1.1531007e-08, No Iterations 3
GAMG:  Solving for p, Initial residual = 3.2680794e-07, Final residual = 8.7935126e-09, No Iterations 2
GAMG:  Solving for p, Initial residual = 1.0105317e-07, Final residual = 8.6785283e-09, No Iterations 1
time step continuity errors : sum local = 1.5466328e-09, global = -2.8536029e-10, cumulative = -1.5193244e-07
smoothSolver:  Solving for omega, Initial residual = 0.00017546284, Final residual = 9.3310166e-06, No Iterations 3
smoothSolver:  Solving for k, Initial residual = 0.00097152313, Final residual = 4.8079834e-05, No Iterations 3
ExecutionTime = 140.086 s  ClockTime = 140 s


SIMPLE solution converged in 158 iterations

forces forces write:
    Sum of forces
        Total    : (0.097449245 3.7454611 -0.057444471)
        Pressure : (0.10112972 3.6981851 -0.059297913)
        Viscous  : (-0.003680478 0.047275994 0.0018534427)
    Sum of moments
        Total    : (-2.3760342 0.07335735 0.58712454)
        Pressure : (-2.3478026 0.081573785 0.53875081)
        Viscous  : (-0.028231543 -0.0082164351 0.04837373)


End

Finalising parallel run
