/*---------------------------------------------------------------------------*\
| =========                 |                                                 |
| \\      /  F ield         | OpenFOAM: The Open Source CFD Toolbox           |
|  \\    /   O peration     | Version:  v2012                                 |
|   \\  /    A nd           | Website:  www.openfoam.com                      |
|    \\/     M anipulation  |                                                 |
\*---------------------------------------------------------------------------*/
Build  : 79e353b84e-20201222 OPENFOAM=2012
Arch   : "LSB;label=32;scalar=64"
Exec   : simpleFoam -parallel
Date   : Apr 17 2022
Time   : 21:05:26
Host   : DESKTOP-OGTHBU9
PID    : 7900
I/O    : uncollated
Case   : C:/Users/ZEEMAR~1/AppData/Local/Temp/case
nProcs : 4
Hosts  :
(
    (DESKTOP-OGTHBU9 4)
)
Pstream initialized with:
    floatTransfer      : 0
    nProcsSimpleSum    : 0
    commsType          : nonBlocking
    polling iterations : 0
trapFpe: Floating point exception trapping enabled (FOAM_SIGFPE).
fileModificationChecking : Monitoring run-time modified files using timeStampMaster (fileModificationSkew 5, maxFileModificationPolls 20)
allowSystemOperations : Allowing user-supplied system call operations

// * * * * * * * * * * * * * * * * * * * * * * * * * * * * * * * * * * * * * //
Create time

Create mesh for time = 0


SIMPLE: convergence criteria
    field p	 tolerance 0.001
    field U	 tolerance 0.001
    field "(k|epsilon|omega|f|v2|nuTilda)"	 tolerance 0.001

Reading field p

Reading field U

Reading/calculating face flux field phi

Selecting incompressible transport model Newtonian
Selecting turbulence model type RAS
Selecting RAS turbulence model kOmegaSST
Selecting patchDistMethod meshWave
RAS
{
    RASModel        kOmegaSST;
    turbulence      on;
    printCoeffs     on;
    alphaK1         0.85;
    alphaK2         1;
    alphaOmega1     0.5;
    alphaOmega2     0.856;
    gamma1          0.55555556;
    gamma2          0.44;
    beta1           0.075;
    beta2           0.0828;
    betaStar        0.09;
    a1              0.31;
    b1              1;
    c1              10;
    F3              false;
    decayControl    false;
    kInf            0;
    omegaInf        0;
}

No MRF models present

No finite volume options present

Starting time loop

forces forces:
    rho: rhoInf
    Freestream density (rhoInf) set to 1
    Not including porosity effects
    Fields will be written

Time = 1

smoothSolver:  Solving for Ux, Initial residual = 0.039129437, Final residual = 0.00073255544, No Iterations 2
smoothSolver:  Solving for Uy, Initial residual = 0.12379317, Final residual = 0.0023074827, No Iterations 2
smoothSolver:  Solving for Uz, Initial residual = 0.13925813, Final residual = 0.011802133, No Iterations 1
GAMG:  Solving for p, Initial residual = 0.5604107, Final residual = 0.0022142274, No Iterations 4
GAMG:  Solving for p, Initial residual = 0.03217969, Final residual = 0.00026658705, No Iterations 3
GAMG:  Solving for p, Initial residual = 0.0038169523, Final residual = 1.9365694e-05, No Iterations 4
GAMG:  Solving for p, Initial residual = 0.00077320263, Final residual = 6.3121959e-06, No Iterations 3
GAMG:  Solving for p, Initial residual = 0.00020245322, Final residual = 9.676798e-07, No Iterations 4
GAMG:  Solving for p, Initial residual = 5.9757603e-05, Final residual = 4.4373424e-07, No Iterations 3
time step continuity errors : sum local = 1.8829975e-07, global = -1.4793093e-08, cumulative = -1.4793093e-08
smoothSolver:  Solving for omega, Initial residual = 1, Final residual = 0.053162814, No Iterations 3
smoothSolver:  Solving for k, Initial residual = 1, Final residual = 0.071942366, No Iterations 2
ExecutionTime = 1.611 s  ClockTime = 1 s

forces forces write:
    Sum of forces
        Total    : (0.088936321 3.2320919 -0.088990352)
        Pressure : (0.088588316 3.229546 -0.088728268)
        Viscous  : (0.00034800446 0.0025458423 -0.00026208376)
    Sum of moments
        Total    : (-2.0556363 0.099990328 0.49968365)
        Pressure : (-2.0541933 0.099867753 0.49872959)
        Viscous  : (-0.0014430212 0.00012257561 0.00095405405)


Time = 2

smoothSolver:  Solving for Ux, Initial residual = 0.02172308, Final residual = 0.0020649603, No Iterations 1
smoothSolver:  Solving for Uy, Initial residual = 0.054121637, Final residual = 0.0052185318, No Iterations 1
smoothSolver:  Solving for Uz, Initial residual = 0.074509532, Final residual = 0.0065662361, No Iterations 1
GAMG:  Solving for p, Initial residual = 0.46068699, Final residual = 0.0019294249, No Iterations 4
GAMG:  Solving for p, Initial residual = 0.028271909, Final residual = 0.00021949883, No Iterations 3
GAMG:  Solving for p, Initial residual = 0.0034850461, Final residual = 1.3421041e-05, No Iterations 4
GAMG:  Solving for p, Initial residual = 0.00073329003, Final residual = 4.879815e-06, No Iterations 3
GAMG:  Solving for p, Initial residual = 0.00019066707, Final residual = 1.636465e-06, No Iterations 3
GAMG:  Solving for p, Initial residual = 5.701315e-05, Final residual = 5.5180392e-07, No Iterations 3
time step continuity errors : sum local = 2.6095317e-07, global = -4.290755e-08, cumulative = -5.7700643e-08
smoothSolver:  Solving for omega, Initial residual = 0.46899878, Final residual = 0.026043727, No Iterations 3
smoothSolver:  Solving for k, Initial residual = 0.2338162, Final residual = 0.017649102, No Iterations 2
ExecutionTime = 2.876 s  ClockTime = 3 s

forces forces write:
    Sum of forces
        Total    : (0.11708973 4.1900443 -0.10879868)
        Pressure : (0.11642938 4.1859269 -0.10848656)
        Viscous  : (0.00066034647 0.0041173821 -0.00031211392)
    Sum of moments
        Total    : (-2.6674797 0.12330815 0.58949636)
        Pressure : (-2.6651655 0.1229929 0.58830853)
        Viscous  : (-0.0023142648 0.0003152502 0.0011878244)


Time = 3

smoothSolver:  Solving for Ux, Initial residual = 0.020818952, Final residual = 0.00034578334, No Iterations 2
smoothSolver:  Solving for Uy, Initial residual = 0.042068426, Final residual = 0.00095347096, No Iterations 2
smoothSolver:  Solving for Uz, Initial residual = 0.050475484, Final residual = 0.00084266431, No Iterations 2
GAMG:  Solving for p, Initial residual = 0.28149149, Final residual = 0.0023678877, No Iterations 3
GAMG:  Solving for p, Initial residual = 0.019573469, Final residual = 0.00014978887, No Iterations 3
GAMG:  Solving for p, Initial residual = 0.0027217038, Final residual = 1.0967846e-05, No Iterations 4
GAMG:  Solving for p, Initial residual = 0.00060405725, Final residual = 5.0576189e-06, No Iterations 3
GAMG:  Solving for p, Initial residual = 0.00015686293, Final residual = 7.7378731e-07, No Iterations 4
GAMG:  Solving for p, Initial residual = 4.5698947e-05, Final residual = 4.0348729e-07, No Iterations 3
time step continuity errors : sum local = 1.5768152e-07, global = 1.4860789e-08, cumulative = -4.2839853e-08
smoothSolver:  Solving for omega, Initial residual = 0.33202362, Final residual = 0.019706892, No Iterations 3
smoothSolver:  Solving for k, Initial residual = 0.13497276, Final residual = 0.0066661328, No Iterations 3
ExecutionTime = 3.598 s  ClockTime = 3 s

forces forces write:
    Sum of forces
        Total    : (0.11323999 4.4617797 -0.12736404)
        Pressure : (0.11220603 4.4574094 -0.12719068)
        Viscous  : (0.0010339551 0.0043703087 -0.00017336406)
    Sum of moments
        Total    : (-2.8417029 0.12542308 0.58103281)
        Pressure : (-2.8392889 0.12493224 0.57973343)
        Viscous  : (-0.0024139282 0.00049084192 0.0012993842)


Time = 4

smoothSolver:  Solving for Ux, Initial residual = 0.020848502, Final residual = 0.0004073615, No Iterations 2
smoothSolver:  Solving for Uy, Initial residual = 0.042365192, Final residual = 0.0012350241, No Iterations 2
smoothSolver:  Solving for Uz, Initial residual = 0.04390425, Final residual = 0.00092582529, No Iterations 2
GAMG:  Solving for p, Initial residual = 0.26562359, Final residual = 0.0024954488, No Iterations 3
GAMG:  Solving for p, Initial residual = 0.022712917, Final residual = 0.00019414511, No Iterations 3
GAMG:  Solving for p, Initial residual = 0.0028219803, Final residual = 1.2174913e-05, No Iterations 4
GAMG:  Solving for p, Initial residual = 0.00059005871, Final residual = 4.1058542e-06, No Iterations 3
GAMG:  Solving for p, Initial residual = 0.00015520027, Final residual = 1.3260885e-06, No Iterations 3
GAMG:  Solving for p, Initial residual = 4.5569203e-05, Final residual = 4.2366531e-07, No Iterations 3
time step continuity errors : sum local = 1.3928524e-07, global = 1.4457406e-08, cumulative = -2.8382447e-08
smoothSolver:  Solving for omega, Initial residual = 0.24534123, Final residual = 0.014894736, No Iterations 3
smoothSolver:  Solving for k, Initial residual = 0.093844781, Final residual = 0.0051973097, No Iterations 3
ExecutionTime = 4.944 s  ClockTime = 5 s

forces forces write:
    Sum of forces
        Total    : (0.059524584 4.1006963 -0.14433815)
        Pressure : (0.058313398 4.0967998 -0.14431975)
        Viscous  : (0.0012111865 0.0038965278 -1.8405752e-05)
    Sum of moments
        Total    : (-2.6098651 0.096454668 0.47624937)
        Pressure : (-2.6077647 0.095919846 0.47489844)
        Viscous  : (-0.0021004007 0.00053482186 0.0013509275)


Time = 5

smoothSolver:  Solving for Ux, Initial residual = 0.01405684, Final residual = 0.00025412869, No Iterations 2
smoothSolver:  Solving for Uy, Initial residual = 0.026885632, Final residual = 0.00070508573, No Iterations 2
smoothSolver:  Solving for Uz, Initial residual = 0.033193726, Final residual = 0.0006714149, No Iterations 2
GAMG:  Solving for p, Initial residual = 0.28498804, Final residual = 0.0011329326, No Iterations 4
GAMG:  Solving for p, Initial residual = 0.024954888, Final residual = 0.00018468689, No Iterations 3
GAMG:  Solving for p, Initial residual = 0.0030788806, Final residual = 2.9662241e-05, No Iterations 3
GAMG:  Solving for p, Initial residual = 0.0005735526, Final residual = 2.7038097e-06, No Iterations 4
GAMG:  Solving for p, Initial residual = 0.0001388687, Final residual = 9.6264747e-07, No Iterations 3
GAMG:  Solving for p, Initial residual = 3.6588323e-05, Final residual = 3.5430922e-07, No Iterations 3
time step continuity errors : sum local = 1.1562669e-07, global = 1.2900041e-08, cumulative = -1.5482405e-08
smoothSolver:  Solving for omega, Initial residual = 0.19223888, Final residual = 0.011842442, No Iterations 3
smoothSolver:  Solving for k, Initial residual = 0.071800105, Final residual = 0.0042360737, No Iterations 3
ExecutionTime = 6.733 s  ClockTime = 6 s

forces forces write:
    Sum of forces
        Total    : (-0.001903179 3.5643675 -0.15212641)
        Pressure : (-0.0032168995 3.561088 -0.15221994)
        Viscous  : (0.0013137204 0.0032794924 9.3527871e-05)
    Sum of moments
        Total    : (-2.2638825 0.060938872 0.36652725)
        Pressure : (-2.2621752 0.060378603 0.36514587)
        Viscous  : (-0.0017073646 0.00056026899 0.0013813734)


Time = 6

smoothSolver:  Solving for Ux, Initial residual = 0.010430277, Final residual = 0.00020390571, No Iterations 2
smoothSolver:  Solving for Uy, Initial residual = 0.019849975, Final residual = 0.00046462951, No Iterations 2
smoothSolver:  Solving for Uz, Initial residual = 0.028845053, Final residual = 0.0005905699, No Iterations 2
GAMG:  Solving for p, Initial residual = 0.23109951, Final residual = 0.00077773027, No Iterations 4
GAMG:  Solving for p, Initial residual = 0.019383748, Final residual = 0.00013490745, No Iterations 3
GAMG:  Solving for p, Initial residual = 0.0025575612, Final residual = 9.3734165e-06, No Iterations 4
GAMG:  Solving for p, Initial residual = 0.00050157624, Final residual = 2.8800595e-06, No Iterations 3
GAMG:  Solving for p, Initial residual = 0.00012618103, Final residual = 7.9975883e-07, No Iterations 3
GAMG:  Solving for p, Initial residual = 3.4176457e-05, Final residual = 2.0076884e-07, No Iterations 3
time step continuity errors : sum local = 6.2347055e-08, global = 1.1040885e-08, cumulative = -4.4415202e-09
smoothSolver:  Solving for omega, Initial residual = 0.15661641, Final residual = 0.0097425899, No Iterations 3
smoothSolver:  Solving for k, Initial residual = 0.058165602, Final residual = 0.0035548475, No Iterations 3
ExecutionTime = 7.539 s  ClockTime = 7 s

forces forces write:
    Sum of forces
        Total    : (-0.019618924 3.2706733 -0.14527438)
        Pressure : (-0.021046015 3.2678231 -0.14543527)
        Viscous  : (0.0014270914 0.0028502375 0.00016088108)
    Sum of moments
        Total    : (-2.074182 0.047970062 0.34172616)
        Pressure : (-2.0727461 0.047358188 0.34030551)
        Viscous  : (-0.0014359438 0.00061187356 0.0014206546)


Time = 7

smoothSolver:  Solving for Ux, Initial residual = 0.011095062, Final residual = 0.00025891117, No Iterations 2
smoothSolver:  Solving for Uy, Initial residual = 0.024348483, Final residual = 0.00072776449, No Iterations 2
smoothSolver:  Solving for Uz, Initial residual = 0.029675917, Final residual = 0.00070184887, No Iterations 2
GAMG:  Solving for p, Initial residual = 0.20644555, Final residual = 0.001447593, No Iterations 3
GAMG:  Solving for p, Initial residual = 0.015588122, Final residual = 0.00010330582, No Iterations 3
GAMG:  Solving for p, Initial residual = 0.0019065119, Final residual = 8.1121423e-06, No Iterations 4
GAMG:  Solving for p, Initial residual = 0.00035554745, Final residual = 2.8491679e-06, No Iterations 3
GAMG:  Solving for p, Initial residual = 8.3412611e-05, Final residual = 3.7576099e-07, No Iterations 4
GAMG:  Solving for p, Initial residual = 2.146072e-05, Final residual = 1.5675616e-07, No Iterations 3
time step continuity errors : sum local = 4.7284666e-08, global = -3.6619961e-09, cumulative = -8.1035163e-09
smoothSolver:  Solving for omega, Initial residual = 0.13117823, Final residual = 0.0082141771, No Iterations 3
smoothSolver:  Solving for k, Initial residual = 0.048962547, Final residual = 0.0030485965, No Iterations 3
ExecutionTime = 8.494 s  ClockTime = 8 s

forces forces write:
    Sum of forces
        Total    : (0.018369892 3.3319827 -0.12652155)
        Pressure : (0.01677219 3.3293303 -0.12673048)
        Viscous  : (0.0015977025 0.0026524687 0.00020892227)
    Sum of moments
        Total    : (-2.1147149 0.065469525 0.41287622)
        Pressure : (-2.1134054 0.064760948 0.41139919)
        Viscous  : (-0.0013094176 0.00070857725 0.0014770361)


Time = 8

smoothSolver:  Solving for Ux, Initial residual = 0.009743212, Final residual = 0.00021462407, No Iterations 2
smoothSolver:  Solving for Uy, Initial residual = 0.017857277, Final residual = 0.00053095647, No Iterations 2
smoothSolver:  Solving for Uz, Initial residual = 0.024639085, Final residual = 0.0005812387, No Iterations 2
GAMG:  Solving for p, Initial residual = 0.21078161, Final residual = 0.00065291799, No Iterations 4
GAMG:  Solving for p, Initial residual = 0.016304415, Final residual = 9.1135458e-05, No Iterations 3
GAMG:  Solving for p, Initial residual = 0.0019224835, Final residual = 1.6812111e-05, No Iterations 3
GAMG:  Solving for p, Initial residual = 0.00038461492, Final residual = 3.5598561e-06, No Iterations 3
GAMG:  Solving for p, Initial residual = 9.3379523e-05, Final residual = 9.3342074e-07, No Iterations 3
GAMG:  Solving for p, Initial residual = 2.4969437e-05, Final residual = 1.0456045e-07, No Iterations 4
time step continuity errors : sum local = 3.2553452e-08, global = -2.3388705e-09, cumulative = -1.0442387e-08
smoothSolver:  Solving for omega, Initial residual = 0.11218868, Final residual = 0.0070571227, No Iterations 3
smoothSolver:  Solving for k, Initial residual = 0.042334394, Final residual = 0.0026587491, No Iterations 3
ExecutionTime = 9.236 s  ClockTime = 9 s

forces forces write:
    Sum of forces
        Total    : (0.077900317 3.5867194 -0.10841501)
        Pressure : (0.076101314 3.5841142 -0.10866438)
        Viscous  : (0.0017990028 0.0026052382 0.00024937337)
    Sum of moments
        Total    : (-2.2809046 0.096088358 0.51246176)
        Pressure : (-2.2796277 0.095255461 0.51092013)
        Viscous  : (-0.0012769798 0.00083289722 0.001541635)


Time = 9

smoothSolver:  Solving for Ux, Initial residual = 0.0078893211, Final residual = 0.00016212896, No Iterations 2
smoothSolver:  Solving for Uy, Initial residual = 0.011328964, Final residual = 0.00028974663, No Iterations 2
smoothSolver:  Solving for Uz, Initial residual = 0.018835761, Final residual = 0.00043129217, No Iterations 2
GAMG:  Solving for p, Initial residual = 0.17919798, Final residual = 0.00059416149, No Iterations 4
GAMG:  Solving for p, Initial residual = 0.01449345, Final residual = 8.6761825e-05, No Iterations 3
GAMG:  Solving for p, Initial residual = 0.001747422, Final residual = 1.5406891e-05, No Iterations 3
GAMG:  Solving for p, Initial residual = 0.0003505186, Final residual = 2.90075e-06, No Iterations 3
GAMG:  Solving for p, Initial residual = 8.3043049e-05, Final residual = 7.3168973e-07, No Iterations 3
GAMG:  Solving for p, Initial residual = 2.2172775e-05, Final residual = 1.9428104e-07, No Iterations 3
time step continuity errors : sum local = 5.9904777e-08, global = -5.9846545e-09, cumulative = -1.6427041e-08
smoothSolver:  Solving for omega, Initial residual = 0.097522843, Final residual = 0.0061539743, No Iterations 3
smoothSolver:  Solving for k, Initial residual = 0.037341981, Final residual = 0.0023512896, No Iterations 3
ExecutionTime = 10.986 s  ClockTime = 11 s

forces forces write:
    Sum of forces
        Total    : (0.11393335 3.8037661 -0.10343096)
        Pressure : (0.11194559 3.8011375 -0.10371431)
        Viscous  : (0.0019877616 0.0026285787 0.00028334415)
    Sum of moments
        Total    : (-2.4223718 0.11615984 0.56233049)
        Pressure : (-2.4210839 0.11520002 0.56072508)
        Viscous  : (-0.0012878465 0.00095982584 0.0016054087)


Time = 10

smoothSolver:  Solving for Ux, Initial residual = 0.0077567117, Final residual = 0.00017474123, No Iterations 2
smoothSolver:  Solving for Uy, Initial residual = 0.012979391, Final residual = 0.00039602365, No Iterations 2
smoothSolver:  Solving for Uz, Initial residual = 0.017974445, Final residual = 0.00042904206, No Iterations 2
GAMG:  Solving for p, Initial residual = 0.15221925, Final residual = 0.0011420959, No Iterations 3
GAMG:  Solving for p, Initial residual = 0.012502909, Final residual = 6.942796e-05, No Iterations 3
GAMG:  Solving for p, Initial residual = 0.0015413348, Final residual = 1.3419829e-05, No Iterations 3
GAMG:  Solving for p, Initial residual = 0.00032266802, Final residual = 1.4794392e-06, No Iterations 4
GAMG:  Solving for p, Initial residual = 7.7792999e-05, Final residual = 5.8488005e-07, No Iterations 3
GAMG:  Solving for p, Initial residual = 2.1683246e-05, Final residual = 2.0522226e-07, No Iterations 3
time step continuity errors : sum local = 6.08732e-08, global = 6.0197458e-09, cumulative = -1.0407296e-08
smoothSolver:  Solving for omega, Initial residual = 0.085877503, Final residual = 0.0054316598, No Iterations 3
smoothSolver:  Solving for k, Initial residual = 0.033444687, Final residual = 0.0021045802, No Iterations 3
ExecutionTime = 11.734 s  ClockTime = 11 s

forces forces write:
    Sum of forces
        Total    : (0.10713527 3.8552504 -0.1124708)
        Pressure : (0.10498074 3.8525836 -0.11278471)
        Viscous  : (0.0021545304 0.0026668091 0.00031390823)
    Sum of moments
        Total    : (-2.4556339 0.11437634 0.53500711)
        Pressure : (-2.4543307 0.11329253 0.53334167)
        Viscous  : (-0.0013032601 0.0010838115 0.0016654441)


Time = 11

smoothSolver:  Solving for Ux, Initial residual = 0.0069992945, Final residual = 0.00016513129, No Iterations 2
smoothSolver:  Solving for Uy, Initial residual = 0.012105423, Final residual = 0.00037550661, No Iterations 2
smoothSolver:  Solving for Uz, Initial residual = 0.017610104, Final residual = 0.00042436228, No Iterations 2
GAMG:  Solving for p, Initial residual = 0.14821277, Final residual = 0.0012570365, No Iterations 3
GAMG:  Solving for p, Initial residual = 0.012396483, Final residual = 8.9044746e-05, No Iterations 3
GAMG:  Solving for p, Initial residual = 0.0014862255, Final residual = 1.4103316e-05, No Iterations 3
GAMG:  Solving for p, Initial residual = 0.00028629908, Final residual = 1.277172e-06, No Iterations 4
GAMG:  Solving for p, Initial residual = 6.7787105e-05, Final residual = 4.528289e-07, No Iterations 3
GAMG:  Solving for p, Initial residual = 1.7942982e-05, Final residual = 1.5528719e-07, No Iterations 3
time step continuity errors : sum local = 4.5245984e-08, global = 4.535968e-09, cumulative = -5.8713276e-09
smoothSolver:  Solving for omega, Initial residual = 0.07643925, Final residual = 0.004843475, No Iterations 3
smoothSolver:  Solving for k, Initial residual = 0.030322298, Final residual = 0.0019042106, No Iterations 3
ExecutionTime = 12.965 s  ClockTime = 13 s

forces forces write:
    Sum of forces
        Total    : (0.072884762 3.764848 -0.12595249)
        Pressure : (0.07055443 3.7621628 -0.1263042)
        Viscous  : (0.0023303318 0.0026852471 0.00035171627)
    Sum of moments
        Total    : (-2.3967625 0.09741362 0.46584836)
        Pressure : (-2.3954611 0.096193921 0.46412329)
        Viscous  : (-0.0013014577 0.0012196986 0.0017250708)


Time = 12

smoothSolver:  Solving for Ux, Initial residual = 0.0058808904, Final residual = 0.00014462252, No Iterations 2
smoothSolver:  Solving for Uy, Initial residual = 0.008663246, Final residual = 0.00022654406, No Iterations 2
smoothSolver:  Solving for Uz, Initial residual = 0.016557607, Final residual = 0.00040706318, No Iterations 2
GAMG:  Solving for p, Initial residual = 0.13478823, Final residual = 0.0012664981, No Iterations 3
GAMG:  Solving for p, Initial residual = 0.011952225, Final residual = 0.00010168216, No Iterations 3
GAMG:  Solving for p, Initial residual = 0.001465836, Final residual = 1.2742902e-05, No Iterations 3
GAMG:  Solving for p, Initial residual = 0.00028081511, Final residual = 2.5579493e-06, No Iterations 3
GAMG:  Solving for p, Initial residual = 6.7071697e-05, Final residual = 6.4161667e-07, No Iterations 3
GAMG:  Solving for p, Initial residual = 1.8121455e-05, Final residual = 1.7491086e-07, No Iterations 3
time step continuity errors : sum local = 4.9970937e-08, global = 4.471602e-09, cumulative = -1.3997256e-09
smoothSolver:  Solving for omega, Initial residual = 0.068660293, Final residual = 0.0043573159, No Iterations 3
smoothSolver:  Solving for k, Initial residual = 0.027763709, Final residual = 0.0017394199, No Iterations 3
ExecutionTime = 14.13 s  ClockTime = 14 s

forces forces write:
    Sum of forces
        Total    : (0.041780353 3.641234 -0.13329829)
        Pressure : (0.039213841 3.6385754 -0.1337107)
        Viscous  : (0.0025665128 0.0026585665 0.00041240795)
    Sum of moments
        Total    : (-2.3165132 0.080666696 0.41367308)
        Pressure : (-2.3152467 0.079272567 0.41188318)
        Viscous  : (-0.001266487 0.0013941285 0.0017899016)


Time = 13

smoothSolver:  Solving for Ux, Initial residual = 0.0056708153, Final residual = 0.00014582473, No Iterations 2
smoothSolver:  Solving for Uy, Initial residual = 0.0089136627, Final residual = 0.00024895845, No Iterations 2
smoothSolver:  Solving for Uz, Initial residual = 0.015965687, Final residual = 0.00041917326, No Iterations 2
GAMG:  Solving for p, Initial residual = 0.12094124, Final residual = 0.00094694901, No Iterations 3
GAMG:  Solving for p, Initial residual = 0.0098024651, Final residual = 6.8159876e-05, No Iterations 3
GAMG:  Solving for p, Initial residual = 0.0012299556, Final residual = 9.36417e-06, No Iterations 3
GAMG:  Solving for p, Initial residual = 0.00024734386, Final residual = 2.107363e-06, No Iterations 3
GAMG:  Solving for p, Initial residual = 5.8836619e-05, Final residual = 5.7362864e-07, No Iterations 3
GAMG:  Solving for p, Initial residual = 1.6160693e-05, Final residual = 7.2045615e-08, No Iterations 4
time step continuity errors : sum local = 2.0216987e-08, global = -1.5441881e-09, cumulative = -2.9439137e-09
smoothSolver:  Solving for omega, Initial residual = 0.062158804, Final residual = 0.0039504466, No Iterations 3
smoothSolver:  Solving for k, Initial residual = 0.025632274, Final residual = 0.0016026888, No Iterations 3
ExecutionTime = 14.854 s  ClockTime = 15 s

forces forces write:
    Sum of forces
        Total    : (0.034021219 3.5781558 -0.13042202)
        Pressure : (0.031119303 3.5755893 -0.13092849)
        Viscous  : (0.002901916 0.0025664759 0.00050646649)
    Sum of moments
        Total    : (-2.2759438 0.075154621 0.41198077)
        Pressure : (-2.2747547 0.07353139 0.41012045)
        Viscous  : (-0.0011891259 0.0016232314 0.0018603148)


Time = 14

smoothSolver:  Solving for Ux, Initial residual = 0.0055181821, Final residual = 0.00013736591, No Iterations 2
smoothSolver:  Solving for Uy, Initial residual = 0.0085845441, Final residual = 0.00025905072, No Iterations 2
smoothSolver:  Solving for Uz, Initial residual = 0.014658239, Final residual = 0.00039989721, No Iterations 2
GAMG:  Solving for p, Initial residual = 0.11454396, Final residual = 0.00084156012, No Iterations 3
GAMG:  Solving for p, Initial residual = 0.0088854827, Final residual = 6.103723e-05, No Iterations 3
GAMG:  Solving for p, Initial residual = 0.0010839211, Final residual = 4.5177519e-06, No Iterations 4
GAMG:  Solving for p, Initial residual = 0.00020602519, Final residual = 1.4721232e-06, No Iterations 3
GAMG:  Solving for p, Initial residual = 4.8781282e-05, Final residual = 4.5070595e-07, No Iterations 3
GAMG:  Solving for p, Initial residual = 1.3002209e-05, Final residual = 5.49436e-08, No Iterations 4
time step continuity errors : sum local = 1.5420108e-08, global = -1.1030757e-09, cumulative = -4.0469894e-09
smoothSolver:  Solving for omega, Initial residual = 0.05665367, Final residual = 0.0036058125, No Iterations 3
smoothSolver:  Solving for k, Initial residual = 0.023829785, Final residual = 0.0014879127, No Iterations 3
ExecutionTime = 15.534 s  ClockTime = 15 s

forces forces write:
    Sum of forces
        Total    : (0.048927662 3.5967279 -0.12090407)
        Pressure : (0.045572162 3.5943358 -0.12154345)
        Viscous  : (0.0033555005 0.0023921367 0.0006393744)
    Sum of moments
        Total    : (-2.2887643 0.081561041 0.4501554)
        Pressure : (-2.2877035 0.079644332 0.44821999)
        Viscous  : (-0.0010608539 0.0019167092 0.0019354037)


Time = 15

smoothSolver:  Solving for Ux, Initial residual = 0.0049859931, Final residual = 0.00011747427, No Iterations 2
smoothSolver:  Solving for Uy, Initial residual = 0.0068706066, Final residual = 0.00020472863, No Iterations 2
smoothSolver:  Solving for Uz, Initial residual = 0.012946132, Final residual = 0.00034636634, No Iterations 2
GAMG:  Solving for p, Initial residual = 0.10758359, Final residual = 0.00088412035, No Iterations 3
GAMG:  Solving for p, Initial residual = 0.0085307903, Final residual = 6.2749948e-05, No Iterations 3
GAMG:  Solving for p, Initial residual = 0.0010153308, Final residual = 4.1721859e-06, No Iterations 4
GAMG:  Solving for p, Initial residual = 0.00019434427, Final residual = 1.287294e-06, No Iterations 3
GAMG:  Solving for p, Initial residual = 4.6099788e-05, Final residual = 3.6944186e-07, No Iterations 3
GAMG:  Solving for p, Initial residual = 1.2248747e-05, Final residual = 1.0512978e-07, No Iterations 3
time step continuity errors : sum local = 2.9522086e-08, global = -2.871808e-09, cumulative = -6.9187974e-09
smoothSolver:  Solving for omega, Initial residual = 0.051941099, Final residual = 0.0033108745, No Iterations 3
smoothSolver:  Solving for k, Initial residual = 0.022290257, Final residual = 0.0013906293, No Iterations 3
ExecutionTime = 16.488 s  ClockTime = 16 s

forces forces write:
    Sum of forces
        Total    : (0.071412812 3.6596119 -0.11172303)
        Pressure : (0.067499645 3.6574798 -0.11252681)
        Viscous  : (0.0039131669 0.0021321354 0.00080378017)
    Sum of moments
        Total    : (-2.3299649 0.092733827 0.49280008)
        Pressure : (-2.329081 0.090475799 0.49078725)
        Viscous  : (-0.00088387079 0.0022580283 0.0020128266)


Time = 16

smoothSolver:  Solving for Ux, Initial residual = 0.004675564, Final residual = 0.00011440445, No Iterations 2
smoothSolver:  Solving for Uy, Initial residual = 0.0062091397, Final residual = 0.0001815708, No Iterations 2
smoothSolver:  Solving for Uz, Initial residual = 0.012201706, Final residual = 0.00031954317, No Iterations 2
GAMG:  Solving for p, Initial residual = 0.097073003, Final residual = 0.00076755985, No Iterations 3
GAMG:  Solving for p, Initial residual = 0.0077889859, Final residual = 6.4756076e-05, No Iterations 3
GAMG:  Solving for p, Initial residual = 0.00095425628, Final residual = 9.3218588e-06, No Iterations 3
GAMG:  Solving for p, Initial residual = 0.00019330727, Final residual = 1.708295e-06, No Iterations 3
GAMG:  Solving for p, Initial residual = 4.6233531e-05, Final residual = 4.2639557e-07, No Iterations 3
GAMG:  Solving for p, Initial residual = 1.2330698e-05, Final residual = 1.1832189e-07, No Iterations 3
time step continuity errors : sum local = 3.3098155e-08, global = -9.2809579e-11, cumulative = -7.011607e-09
smoothSolver:  Solving for omega, Initial residual = 0.047867518, Final residual = 0.0030560984, No Iterations 3
smoothSolver:  Solving for k, Initial residual = 0.020961722, Final residual = 0.001307425, No Iterations 3
ExecutionTime = 17.27 s  ClockTime = 17 s

forces forces write:
    Sum of forces
        Total    : (0.086410857 3.7141443 -0.10781101)
        Pressure : (0.081823306 3.7123649 -0.10881558)
        Viscous  : (0.0045875504 0.0017794336 0.001004566)
    Sum of moments
        Total    : (-2.3651389 0.10093707 0.51086032)
        Pressure : (-2.3644817 0.09828233 0.50876385)
        Viscous  : (-0.00065727046 0.0026547425 0.002096477)


Time = 17

smoothSolver:  Solving for Ux, Initial residual = 0.0045343847, Final residual = 0.00011924207, No Iterations 2
smoothSolver:  Solving for Uy, Initial residual = 0.0058757787, Final residual = 0.00017621843, No Iterations 2
smoothSolver:  Solving for Uz, Initial residual = 0.011995171, Final residual = 0.00031672699, No Iterations 2
GAMG:  Solving for p, Initial residual = 0.088441463, Final residual = 0.00066631906, No Iterations 3
GAMG:  Solving for p, Initial residual = 0.0071733367, Final residual = 4.0701516e-05, No Iterations 3
GAMG:  Solving for p, Initial residual = 0.00088779916, Final residual = 6.2634248e-06, No Iterations 3
GAMG:  Solving for p, Initial residual = 0.00018190538, Final residual = 1.4445805e-06, No Iterations 3
GAMG:  Solving for p, Initial residual = 4.4122348e-05, Final residual = 3.91083e-07, No Iterations 3
GAMG:  Solving for p, Initial residual = 1.2064363e-05, Final residual = 1.0694728e-07, No Iterations 3
time step continuity errors : sum local = 2.9633454e-08, global = 2.6082766e-09, cumulative = -4.4033305e-09
smoothSolver:  Solving for omega, Initial residual = 0.044317562, Final residual = 0.0028341721, No Iterations 3
smoothSolver:  Solving for k, Initial residual = 0.019807663, Final residual = 0.0012357171, No Iterations 3
ExecutionTime = 18.1 s  ClockTime = 18 s

forces forces write:
    Sum of forces
        Total    : (0.088298097 3.7305222 -0.10914008)
        Pressure : (0.082954299 3.7291716 -0.11036857)
        Viscous  : (0.0053437989 0.001350607 0.0012284886)
    Sum of moments
        Total    : (-2.3753024 0.10254392 0.49943003)
        Pressure : (-2.3749014 0.099480691 0.49724394)
        Viscous  : (-0.00040103552 0.00306323 0.002186095)


Time = 18

smoothSolver:  Solving for Ux, Initial residual = 0.0043054534, Final residual = 0.0001175229, No Iterations 2
smoothSolver:  Solving for Uy, Initial residual = 0.0049970615, Final residual = 0.00014982279, No Iterations 2
smoothSolver:  Solving for Uz, Initial residual = 0.011519217, Final residual = 0.0003130882, No Iterations 2
GAMG:  Solving for p, Initial residual = 0.082800343, Final residual = 0.00059295914, No Iterations 3
GAMG:  Solving for p, Initial residual = 0.0067773235, Final residual = 3.6975849e-05, No Iterations 3
GAMG:  Solving for p, Initial residual = 0.00084567893, Final residual = 6.4074526e-06, No Iterations 3
GAMG:  Solving for p, Initial residual = 0.00016896558, Final residual = 1.4827467e-06, No Iterations 3
GAMG:  Solving for p, Initial residual = 4.1219571e-05, Final residual = 4.0174751e-07, No Iterations 3
GAMG:  Solving for p, Initial residual = 1.0864365e-05, Final residual = 4.5283249e-08, No Iterations 4
time step continuity errors : sum local = 1.2398525e-08, global = 8.3423043e-10, cumulative = -3.5691e-09
smoothSolver:  Solving for omega, Initial residual = 0.041202657, Final residual = 0.002639466, No Iterations 3
smoothSolver:  Solving for k, Initial residual = 0.018798425, Final residual = 0.0011734484, No Iterations 3
ExecutionTime = 18.869 s  ClockTime = 19 s

forces forces write:
    Sum of forces
        Total    : (0.081528434 3.7124212 -0.1122813)
        Pressure : (0.075331553 3.7115715 -0.11376171)
        Viscous  : (0.0061968809 0.00084967747 0.0014804115)
    Sum of moments
        Total    : (-2.3634649 0.099167437 0.47466495)
        Pressure : (-2.363341 0.095683596 0.47237922)
        Viscous  : (-0.00012395691 0.0034838416 0.0022857305)


Time = 19

smoothSolver:  Solving for Ux, Initial residual = 0.0040992267, Final residual = 0.00011399642, No Iterations 2
smoothSolver:  Solving for Uy, Initial residual = 0.0044748543, Final residual = 0.00013240809, No Iterations 2
smoothSolver:  Solving for Uz, Initial residual = 0.010782791, Final residual = 0.00030678374, No Iterations 2
GAMG:  Solving for p, Initial residual = 0.075985726, Final residual = 0.00056629131, No Iterations 3
GAMG:  Solving for p, Initial residual = 0.0061549875, Final residual = 4.0256193e-05, No Iterations 3
GAMG:  Solving for p, Initial residual = 0.00077572258, Final residual = 5.3005973e-06, No Iterations 3
GAMG:  Solving for p, Initial residual = 0.00015961748, Final residual = 9.0579546e-07, No Iterations 3
GAMG:  Solving for p, Initial residual = 3.8209285e-05, Final residual = 2.2363814e-07, No Iterations 3
GAMG:  Solving for p, Initial residual = 1.0272409e-05, Final residual = 5.1651666e-08, No Iterations 3
time step continuity errors : sum local = 1.3960406e-08, global = 2.0771945e-09, cumulative = -1.4919055e-09
smoothSolver:  Solving for omega, Initial residual = 0.038451057, Final residual = 0.0024673258, No Iterations 3
smoothSolver:  Solving for k, Initial residual = 0.01790878, Final residual = 0.0011189891, No Iterations 3
ExecutionTime = 19.59 s  ClockTime = 19 s

forces forces write:
    Sum of forces
        Total    : (0.0746334 3.6838103 -0.11380413)
        Pressure : (0.067561627 3.6835059 -0.11553414)
        Viscous  : (0.0070717722 0.00030446662 0.0017300034)
    Sum of moments
        Total    : (-2.3454609 0.095013247 0.45757019)
        Pressure : (-2.3456095 0.09116792 0.455179)
        Viscous  : (0.00014861836 0.0038453272 0.0023911831)


Time = 20

smoothSolver:  Solving for Ux, Initial residual = 0.003932872, Final residual = 0.00011022599, No Iterations 2
smoothSolver:  Solving for Uy, Initial residual = 0.0044271205, Final residual = 0.00013484504, No Iterations 2
smoothSolver:  Solving for Uz, Initial residual = 0.010175293, Final residual = 0.0003023249, No Iterations 2
GAMG:  Solving for p, Initial residual = 0.070846192, Final residual = 0.000539225, No Iterations 3
GAMG:  Solving for p, Initial residual = 0.0054209183, Final residual = 3.7279586e-05, No Iterations 3
GAMG:  Solving for p, Initial residual = 0.00068172023, Final residual = 6.1409279e-06, No Iterations 3
GAMG:  Solving for p, Initial residual = 0.00014557825, Final residual = 1.4277633e-06, No Iterations 3
GAMG:  Solving for p, Initial residual = 3.5210033e-05, Final residual = 1.4872088e-07, No Iterations 4
GAMG:  Solving for p, Initial residual = 9.5534575e-06, Final residual = 6.0584104e-08, No Iterations 3
time step continuity errors : sum local = 1.6192774e-08, global = -1.1898817e-09, cumulative = -2.6817873e-09
smoothSolver:  Solving for omega, Initial residual = 0.036004141, Final residual = 0.0023140928, No Iterations 3
smoothSolver:  Solving for k, Initial residual = 0.01711852, Final residual = 0.0010709534, No Iterations 3
ExecutionTime = 20.567 s  ClockTime = 20 s

forces forces write:
    Sum of forces
        Total    : (0.073445928 3.6667104 -0.1124475)
        Pressure : (0.065534061 3.6669768 -0.11439821)
        Viscous  : (0.0079118668 -0.00026636388 0.0019507134)
    Sum of moments
        Total    : (-2.3352469 0.093420325 0.45835897)
        Pressure : (-2.3356508 0.08931153 0.45585997)
        Viscous  : (0.00040399446 0.0041087953 0.0024989965)


Time = 21

smoothSolver:  Solving for Ux, Initial residual = 0.0037552517, Final residual = 0.00010539445, No Iterations 2
smoothSolver:  Solving for Uy, Initial residual = 0.0040713832, Final residual = 0.00012252343, No Iterations 2
smoothSolver:  Solving for Uz, Initial residual = 0.0097059556, Final residual = 0.00029657643, No Iterations 2
GAMG:  Solving for p, Initial residual = 0.067152297, Final residual = 0.00048224756, No Iterations 3
GAMG:  Solving for p, Initial residual = 0.0051557089, Final residual = 3.2997103e-05, No Iterations 3
GAMG:  Solving for p, Initial residual = 0.00065789702, Final residual = 5.8725989e-06, No Iterations 3
GAMG:  Solving for p, Initial residual = 0.00013660234, Final residual = 5.9344854e-07, No Iterations 4
GAMG:  Solving for p, Initial residual = 3.2815109e-05, Final residual = 2.2069807e-07, No Iterations 3
GAMG:  Solving for p, Initial residual = 8.985844e-06, Final residual = 7.944266e-08, No Iterations 3
time step continuity errors : sum local = 2.1081394e-08, global = -1.7314111e-09, cumulative = -4.4131983e-09
smoothSolver:  Solving for omega, Initial residual = 0.033814542, Final residual = 0.002176825, No Iterations 3
smoothSolver:  Solving for k, Initial residual = 0.016413562, Final residual = 0.0010284088, No Iterations 3
ExecutionTime = 21.184 s  ClockTime = 21 s

forces forces write:
    Sum of forces
        Total    : (0.07831416 3.6679694 -0.10918253)
        Pressure : (0.069600582 3.6688029 -0.11132594)
        Viscous  : (0.0087135782 -0.00083353594 0.0021434114)
    Sum of moments
        Total    : (-2.3367725 0.095026499 0.47248358)
        Pressure : (-2.3373975 0.09073576 0.46988027)
        Viscous  : (0.00062501485 0.0042907393 0.0026033129)


Time = 22

smoothSolver:  Solving for Ux, Initial residual = 0.0036021993, Final residual = 0.00010101126, No Iterations 2
smoothSolver:  Solving for Uy, Initial residual = 0.0035651829, Final residual = 0.000106819, No Iterations 2
smoothSolver:  Solving for Uz, Initial residual = 0.0093698987, Final residual = 0.00029421469, No Iterations 2
GAMG:  Solving for p, Initial residual = 0.062623973, Final residual = 0.00041645998, No Iterations 3
GAMG:  Solving for p, Initial residual = 0.0048068276, Final residual = 2.7166836e-05, No Iterations 3
GAMG:  Solving for p, Initial residual = 0.00061077825, Final residual = 4.5654974e-06, No Iterations 3
GAMG:  Solving for p, Initial residual = 0.00012712893, Final residual = 1.100241e-06, No Iterations 3
GAMG:  Solving for p, Initial residual = 3.1295188e-05, Final residual = 2.9328472e-07, No Iterations 3
GAMG:  Solving for p, Initial residual = 8.6571675e-06, Final residual = 8.5619333e-08, No Iterations 3
time step continuity errors : sum local = 2.2597329e-08, global = -2.029032e-09, cumulative = -6.4422303e-09
smoothSolver:  Solving for omega, Initial residual = 0.031845324, Final residual = 0.0020531861, No Iterations 3
smoothSolver:  Solving for k, Initial residual = 0.01578176, Final residual = 0.00099057147, No Iterations 3
ExecutionTime = 21.82 s  ClockTime = 21 s

forces forces write:
    Sum of forces
        Total    : (0.085554471 3.6804217 -0.10604819)
        Pressure : (0.076315253 3.6817425 -0.10827082)
        Viscous  : (0.0092392181 -0.0013208303 0.0022226356)
    Sum of moments
        Total    : (-2.3449384 0.098223224 0.48786701)
        Pressure : (-2.3457348 0.093896077 0.48516669)
        Viscous  : (0.00079641791 0.0043271473 0.0027003155)


Time = 23

smoothSolver:  Solving for Ux, Initial residual = 0.0035206798, Final residual = 9.9451201e-05, No Iterations 2
smoothSolver:  Solving for Uy, Initial residual = 0.003331956, Final residual = 9.8786219e-05, No Iterations 2
smoothSolver:  Solving for Uz, Initial residual = 0.0091223583, Final residual = 0.00029292188, No Iterations 2
GAMG:  Solving for p, Initial residual = 0.058345951, Final residual = 0.0004187619, No Iterations 3
GAMG:  Solving for p, Initial residual = 0.0044522031, Final residual = 2.9851648e-05, No Iterations 3
GAMG:  Solving for p, Initial residual = 0.00056953531, Final residual = 3.9164448e-06, No Iterations 3
GAMG:  Solving for p, Initial residual = 0.00012125039, Final residual = 6.8638552e-07, No Iterations 3
GAMG:  Solving for p, Initial residual = 2.9407953e-05, Final residual = 1.5378115e-07, No Iterations 3
GAMG:  Solving for p, Initial residual = 8.0946737e-06, Final residual = 3.7160796e-08, No Iterations 3
time step continuity errors : sum local = 9.736884e-09, global = -1.741336e-09, cumulative = -8.1835663e-09
smoothSolver:  Solving for omega, Initial residual = 0.030064762, Final residual = 0.0019412869, No Iterations 3
smoothSolver:  Solving for k, Initial residual = 0.015212542, Final residual = 0.00095675493, No Iterations 3
ExecutionTime = 22.68 s  ClockTime = 22 s

forces forces write:
    Sum of forces
        Total    : (0.091222742 3.6924683 -0.10433272)
        Pressure : (0.08184338 3.6941171 -0.10648354)
        Viscous  : (0.0093793611 -0.0016487522 0.0021508196)
    Sum of moments
        Total    : (-2.3523118 0.10089271 0.49510002)
        Pressure : (-2.3532074 0.096691065 0.4923158)
        Viscous  : (0.00089556091 0.0042016496 0.0027842269)


Time = 24

smoothSolver:  Solving for Ux, Initial residual = 0.0034306847, Final residual = 9.7448169e-05, No Iterations 2
smoothSolver:  Solving for Uy, Initial residual = 0.0031293419, Final residual = 8.9580092e-05, No Iterations 2
smoothSolver:  Solving for Uz, Initial residual = 0.0088176195, Final residual = 0.00028896318, No Iterations 2
GAMG:  Solving for p, Initial residual = 0.054283171, Final residual = 0.00040633843, No Iterations 3
GAMG:  Solving for p, Initial residual = 0.0041971405, Final residual = 2.8997087e-05, No Iterations 3
GAMG:  Solving for p, Initial residual = 0.00054023977, Final residual = 4.1670355e-06, No Iterations 3
GAMG:  Solving for p, Initial residual = 0.00011667305, Final residual = 9.3340032e-07, No Iterations 3
GAMG:  Solving for p, Initial residual = 2.8515872e-05, Final residual = 2.6281882e-07, No Iterations 3
GAMG:  Solving for p, Initial residual = 7.885228e-06, Final residual = 7.651389e-08, No Iterations 3
time step continuity errors : sum local = 1.9878967e-08, global = 1.8842836e-09, cumulative = -6.2992827e-09
smoothSolver:  Solving for omega, Initial residual = 0.028446628, Final residual = 0.0018395435, No Iterations 3
smoothSolver:  Solving for k, Initial residual = 0.014698865, Final residual = 0.00092640606, No Iterations 3
ExecutionTime = 23.295 s  ClockTime = 23 s

forces forces write:
    Sum of forces
        Total    : (0.093596857 3.6964999 -0.10398686)
        Pressure : (0.084382365 3.6983117 -0.10594802)
        Viscous  : (0.0092144919 -0.0018117656 0.0019611624)
    Sum of moments
        Total    : (-2.3544719 0.10182905 0.49265172)
        Pressure : (-2.3553907 0.097878632 0.48979736)
        Viscous  : (0.00091879318 0.0039504221 0.0028543595)


Time = 25

smoothSolver:  Solving for Ux, Initial residual = 0.0033405565, Final residual = 9.436391e-05, No Iterations 2
smoothSolver:  Solving for Uy, Initial residual = 0.0029381382, Final residual = 8.3466995e-05, No Iterations 2
smoothSolver:  Solving for Uz, Initial residual = 0.008469093, Final residual = 0.00028015656, No Iterations 2
GAMG:  Solving for p, Initial residual = 0.050361457, Final residual = 0.00033562845, No Iterations 3
GAMG:  Solving for p, Initial residual = 0.0039279496, Final residual = 2.0300961e-05, No Iterations 3
GAMG:  Solving for p, Initial residual = 0.00052293759, Final residual = 2.890958e-06, No Iterations 3
GAMG:  Solving for p, Initial residual = 0.00011435219, Final residual = 6.8671754e-07, No Iterations 3
GAMG:  Solving for p, Initial residual = 2.8191562e-05, Final residual = 2.1800124e-07, No Iterations 3
GAMG:  Solving for p, Initial residual = 7.9459382e-06, Final residual = 6.6644186e-08, No Iterations 3
time step continuity errors : sum local = 1.7154577e-08, global = 1.6235053e-09, cumulative = -4.6757774e-09
smoothSolver:  Solving for omega, Initial residual = 0.026967476, Final residual = 0.001746596, No Iterations 3
smoothSolver:  Solving for k, Initial residual = 0.014231253, Final residual = 0.00089890736, No Iterations 3
ExecutionTime = 23.955 s  ClockTime = 24 s

forces forces write:
    Sum of forces
        Total    : (0.09332532 3.6924075 -0.10420338)
        Pressure : (0.084350868 3.6943231 -0.10592943)
        Viscous  : (0.0089744515 -0.0019155535 0.0017260446)
    Sum of moments
        Total    : (-2.3518215 0.10118104 0.48561575)
        Pressure : (-2.3527283 0.09751928 0.48269457)
        Viscous  : (0.00090678036 0.0036617598 0.0029211815)


Time = 26

smoothSolver:  Solving for Ux, Initial residual = 0.0032405802, Final residual = 9.077245e-05, No Iterations 2
smoothSolver:  Solving for Uy, Initial residual = 0.002806238, Final residual = 8.0600649e-05, No Iterations 2
smoothSolver:  Solving for Uz, Initial residual = 0.0081933438, Final residual = 0.00027018262, No Iterations 2
GAMG:  Solving for p, Initial residual = 0.047120459, Final residual = 0.00027827522, No Iterations 3
GAMG:  Solving for p, Initial residual = 0.0036377342, Final residual = 1.7570246e-05, No Iterations 3
GAMG:  Solving for p, Initial residual = 0.00048602711, Final residual = 2.7972154e-06, No Iterations 3
GAMG:  Solving for p, Initial residual = 0.00010619792, Final residual = 5.4803929e-07, No Iterations 3
GAMG:  Solving for p, Initial residual = 2.616918e-05, Final residual = 1.5384197e-07, No Iterations 3
GAMG:  Solving for p, Initial residual = 7.350304e-06, Final residual = 4.2724379e-08, No Iterations 3
time step continuity errors : sum local = 1.0911168e-08, global = 1.2614449e-09, cumulative = -3.4143325e-09
smoothSolver:  Solving for omega, Initial residual = 0.025608548, Final residual = 0.0016612094, No Iterations 3
smoothSolver:  Solving for k, Initial residual = 0.013803414, Final residual = 0.00087382953, No Iterations 3
ExecutionTime = 24.665 s  ClockTime = 24 s

forces forces write:
    Sum of forces
        Total    : (0.092080995 3.6853045 -0.10424863)
        Pressure : (0.083386589 3.6872708 -0.10571962)
        Viscous  : (0.0086944057 -0.0019662629 0.0014709824)
    Sum of moments
        Total    : (-2.3477335 0.09993298 0.4805463)
        Pressure : (-2.348609 0.096578459 0.47755808)
        Viscous  : (0.00087549419 0.0033545212 0.0029882153)


Time = 27

smoothSolver:  Solving for Ux, Initial residual = 0.0031375393, Final residual = 8.7834634e-05, No Iterations 2
smoothSolver:  Solving for Uy, Initial residual = 0.002650366, Final residual = 7.6398332e-05, No Iterations 2
smoothSolver:  Solving for Uz, Initial residual = 0.0079425358, Final residual = 0.00025609852, No Iterations 2
GAMG:  Solving for p, Initial residual = 0.044172887, Final residual = 0.00028482274, No Iterations 3
GAMG:  Solving for p, Initial residual = 0.0034557472, Final residual = 2.0519931e-05, No Iterations 3
GAMG:  Solving for p, Initial residual = 0.00046668428, Final residual = 3.7468247e-06, No Iterations 3
GAMG:  Solving for p, Initial residual = 0.00010374299, Final residual = 8.8679369e-07, No Iterations 3
GAMG:  Solving for p, Initial residual = 2.6210264e-05, Final residual = 2.4788512e-07, No Iterations 3
GAMG:  Solving for p, Initial residual = 7.3224122e-06, Final residual = 7.1957185e-08, No Iterations 3
time step continuity errors : sum local = 1.8267198e-08, global = 9.9535947e-10, cumulative = -2.418973e-09
smoothSolver:  Solving for omega, Initial residual = 0.024356289, Final residual = 0.0015824213, No Iterations 3
smoothSolver:  Solving for k, Initial residual = 0.013409937, Final residual = 0.00085080232, No Iterations 3
ExecutionTime = 25.335 s  ClockTime = 25 s

forces forces write:
    Sum of forces
        Total    : (0.091361709 3.6803957 -0.10381951)
        Pressure : (0.083000388 3.6824153 -0.10508592)
        Viscous  : (0.0083613212 -0.0020196151 0.0012664161)
    Sum of moments
        Total    : (-2.3453204 0.09907616 0.48082663)
        Pressure : (-2.3461653 0.09604384 0.47776753)
        Viscous  : (0.00084496018 0.0030323205 0.0030590993)


Time = 28

smoothSolver:  Solving for Ux, Initial residual = 0.0030510519, Final residual = 8.678012e-05, No Iterations 2
smoothSolver:  Solving for Uy, Initial residual = 0.0024581517, Final residual = 6.9096093e-05, No Iterations 2
smoothSolver:  Solving for Uz, Initial residual = 0.0077173525, Final residual = 0.00024107553, No Iterations 2
GAMG:  Solving for p, Initial residual = 0.041753637, Final residual = 0.00026333247, No Iterations 3
GAMG:  Solving for p, Initial residual = 0.0032341516, Final residual = 1.838148e-05, No Iterations 3
GAMG:  Solving for p, Initial residual = 0.00043409767, Final residual = 2.9773882e-06, No Iterations 3
GAMG:  Solving for p, Initial residual = 9.6335047e-05, Final residual = 7.679172e-07, No Iterations 3
GAMG:  Solving for p, Initial residual = 2.3426516e-05, Final residual = 2.194447e-07, No Iterations 3
GAMG:  Solving for p, Initial residual = 6.5195882e-06, Final residual = 6.3069226e-08, No Iterations 3
time step continuity errors : sum local = 1.5912557e-08, global = -1.2375059e-09, cumulative = -3.6564789e-09
smoothSolver:  Solving for omega, Initial residual = 0.023198363, Final residual = 0.0015093374, No Iterations 3
smoothSolver:  Solving for k, Initial residual = 0.013046929, Final residual = 0.00082950225, No Iterations 3
ExecutionTime = 26.172 s  ClockTime = 26 s

forces forces write:
    Sum of forces
        Total    : (0.091677659 3.6797064 -0.10310671)
        Pressure : (0.08370013 3.6817744 -0.10421318)
        Viscous  : (0.0079775292 -0.0020680718 0.0011064704)
    Sum of moments
        Total    : (-2.3455033 0.099025035 0.48547297)
        Pressure : (-2.3463278 0.096327912 0.48233427)
        Viscous  : (0.00082444715 0.0026971227 0.0031387057)


Time = 29

smoothSolver:  Solving for Ux, Initial residual = 0.0029877465, Final residual = 8.5776972e-05, No Iterations 2
smoothSolver:  Solving for Uy, Initial residual = 0.0022899615, Final residual = 6.217347e-05, No Iterations 2
smoothSolver:  Solving for Uz, Initial residual = 0.0075296521, Final residual = 0.00022833861, No Iterations 2
GAMG:  Solving for p, Initial residual = 0.039348213, Final residual = 0.00021906598, No Iterations 3
GAMG:  Solving for p, Initial residual = 0.0029818236, Final residual = 1.5016512e-05, No Iterations 3
GAMG:  Solving for p, Initial residual = 0.00041602815, Final residual = 2.0681055e-06, No Iterations 3
GAMG:  Solving for p, Initial residual = 9.2726489e-05, Final residual = 4.1248186e-07, No Iterations 3
GAMG:  Solving for p, Initial residual = 2.2894942e-05, Final residual = 9.4767534e-08, No Iterations 3
GAMG:  Solving for p, Initial residual = 6.3597864e-06, Final residual = 2.5604035e-08, No Iterations 3
time step continuity errors : sum local = 6.4212015e-09, global = -1.07511e-09, cumulative = -4.7315888e-09
smoothSolver:  Solving for omega, Initial residual = 0.022123795, Final residual = 0.0014412135, No Iterations 3
smoothSolver:  Solving for k, Initial residual = 0.012712799, Final residual = 0.00080974663, No Iterations 3
ExecutionTime = 26.903 s  ClockTime = 27 s

forces forces write:
    Sum of forces
        Total    : (0.092672128 3.6817827 -0.10246965)
        Pressure : (0.08512307 3.6839005 -0.10342786)
        Viscous  : (0.0075490583 -0.0021177332 0.00095820473)
    Sum of moments
        Total    : (-2.3471602 0.099558781 0.49104708)
        Pressure : (-2.3479625 0.097207542 0.48782317)
        Viscous  : (0.00080230385 0.0023512395 0.0032239092)


Time = 30

smoothSolver:  Solving for Ux, Initial residual = 0.0029374195, Final residual = 8.3487484e-05, No Iterations 2
smoothSolver:  Solving for Uy, Initial residual = 0.0022084502, Final residual = 5.8531122e-05, No Iterations 2
smoothSolver:  Solving for Uz, Initial residual = 0.0073729936, Final residual = 0.00022057247, No Iterations 2
GAMG:  Solving for p, Initial residual = 0.036935082, Final residual = 0.00020823077, No Iterations 3
GAMG:  Solving for p, Initial residual = 0.0028115834, Final residual = 1.6623581e-05, No Iterations 3
GAMG:  Solving for p, Initial residual = 0.00040008461, Final residual = 3.1324904e-06, No Iterations 3
GAMG:  Solving for p, Initial residual = 9.3609831e-05, Final residual = 8.2122591e-07, No Iterations 3
GAMG:  Solving for p, Initial residual = 2.3817158e-05, Final residual = 2.2508399e-07, No Iterations 3
GAMG:  Solving for p, Initial residual = 6.8265782e-06, Final residual = 6.8152411e-08, No Iterations 3
time step continuity errors : sum local = 1.6973381e-08, global = -7.5443255e-10, cumulative = -5.4860214e-09
smoothSolver:  Solving for omega, Initial residual = 0.021122913, Final residual = 0.0013774574, No Iterations 3
smoothSolver:  Solving for k, Initial residual = 0.012405507, Final residual = 0.00079137416, No Iterations 3
ExecutionTime = 27.592 s  ClockTime = 27 s

forces forces write:
    Sum of forces
        Total    : (0.093599289 3.6836862 -0.10217004)
        Pressure : (0.086564176 3.6858378 -0.10290126)
        Viscous  : (0.0070351138 -0.0021516254 0.00073122295)
    Sum of moments
        Total    : (-2.3484401 0.10013843 0.49446043)
        Pressure : (-2.3492158 0.098139267 0.49114007)
        Viscous  : (0.00077572098 0.0019991667 0.0033203613)


Time = 31

smoothSolver:  Solving for Ux, Initial residual = 0.0028815856, Final residual = 8.0454128e-05, No Iterations 2
smoothSolver:  Solving for Uy, Initial residual = 0.0021357811, Final residual = 5.6090307e-05, No Iterations 2
smoothSolver:  Solving for Uz, Initial residual = 0.007201612, Final residual = 0.00021456658, No Iterations 2
GAMG:  Solving for p, Initial residual = 0.034862215, Final residual = 0.00021158479, No Iterations 3
GAMG:  Solving for p, Initial residual = 0.0026759611, Final residual = 1.5455769e-05, No Iterations 3
GAMG:  Solving for p, Initial residual = 0.00038375621, Final residual = 3.0776864e-06, No Iterations 3
GAMG:  Solving for p, Initial residual = 9.0331728e-05, Final residual = 8.1684349e-07, No Iterations 3
GAMG:  Solving for p, Initial residual = 2.3144241e-05, Final residual = 2.2034319e-07, No Iterations 3
GAMG:  Solving for p, Initial residual = 6.6577813e-06, Final residual = 6.5507474e-08, No Iterations 3
time step continuity errors : sum local = 1.6174995e-08, global = -1.0083191e-09, cumulative = -6.4943405e-09
smoothSolver:  Solving for omega, Initial residual = 0.020188245, Final residual = 0.0013176375, No Iterations 3
smoothSolver:  Solving for k, Initial residual = 0.012122321, Final residual = 0.00077420672, No Iterations 3
ExecutionTime = 28.948 s  ClockTime = 29 s

forces forces write:
    Sum of forces
        Total    : (0.093938201 3.6834373 -0.10207141)
        Pressure : (0.087524902 3.6855716 -0.10252371)
        Viscous  : (0.0064132997 -0.0021342971 0.00045230104)
    Sum of moments
        Total    : (-2.3482339 0.10030644 0.49478792)
        Pressure : (-2.3489706 0.0986627 0.49135605)
        Viscous  : (0.00073667184 0.0016437451 0.0034318746)


Time = 32

smoothSolver:  Solving for Ux, Initial residual = 0.0028124605, Final residual = 7.728176e-05, No Iterations 2
smoothSolver:  Solving for Uy, Initial residual = 0.002052228, Final residual = 5.3870818e-05, No Iterations 2
smoothSolver:  Solving for Uz, Initial residual = 0.0070029497, Final residual = 0.00020815061, No Iterations 2
GAMG:  Solving for p, Initial residual = 0.03288602, Final residual = 0.00018626115, No Iterations 3
GAMG:  Solving for p, Initial residual = 0.0024405735, Final residual = 1.2310467e-05, No Iterations 3
GAMG:  Solving for p, Initial residual = 0.00034610787, Final residual = 1.8145758e-06, No Iterations 3
GAMG:  Solving for p, Initial residual = 7.9437251e-05, Final residual = 4.5283141e-07, No Iterations 3
GAMG:  Solving for p, Initial residual = 2.0018982e-05, Final residual = 1.2823769e-07, No Iterations 3
GAMG:  Solving for p, Initial residual = 5.6773849e-06, Final residual = 3.8553809e-08, No Iterations 3
time step continuity errors : sum local = 9.4359126e-09, global = -9.4625241e-10, cumulative = -7.4405929e-09
smoothSolver:  Solving for omega, Initial residual = 0.019313754, Final residual = 0.0012613916, No Iterations 3
smoothSolver:  Solving for k, Initial residual = 0.011861308, Final residual = 0.00075812974, No Iterations 3
ExecutionTime = 29.611 s  ClockTime = 29 s

forces forces write:
    Sum of forces
        Total    : (0.093737275 3.6811204 -0.10192165)
        Pressure : (0.087985901 3.6832129 -0.10211488)
        Viscous  : (0.0057513742 -0.0020925316 0.000193234)
    Sum of moments
        Total    : (-2.3467676 0.099989132 0.49329635)
        Pressure : (-2.3474544 0.098699924 0.48973998)
        Viscous  : (0.00068686158 0.0012892085 0.0035563707)


Time = 33

smoothSolver:  Solving for Ux, Initial residual = 0.002743438, Final residual = 7.484666e-05, No Iterations 2
smoothSolver:  Solving for Uy, Initial residual = 0.0019525224, Final residual = 5.0728147e-05, No Iterations 2
smoothSolver:  Solving for Uz, Initial residual = 0.0067891876, Final residual = 0.00020160627, No Iterations 2
GAMG:  Solving for p, Initial residual = 0.031008047, Final residual = 0.000157383, No Iterations 3
GAMG:  Solving for p, Initial residual = 0.0021986126, Final residual = 1.0867645e-05, No Iterations 3
GAMG:  Solving for p, Initial residual = 0.00031531114, Final residual = 1.94829e-06, No Iterations 3
GAMG:  Solving for p, Initial residual = 7.2130757e-05, Final residual = 4.7340032e-07, No Iterations 3
GAMG:  Solving for p, Initial residual = 1.8102428e-05, Final residual = 1.2527056e-07, No Iterations 3
GAMG:  Solving for p, Initial residual = 5.1112712e-06, Final residual = 3.783343e-08, No Iterations 3
time step continuity errors : sum local = 9.183344e-09, global = -9.5408269e-10, cumulative = -8.3946756e-09
smoothSolver:  Solving for omega, Initial residual = 0.018493942, Final residual = 0.0012083565, No Iterations 3
smoothSolver:  Solving for k, Initial residual = 0.011620652, Final residual = 0.00074303958, No Iterations 3
ExecutionTime = 30.562 s  ClockTime = 30 s

forces forces write:
    Sum of forces
        Total    : (0.093308504 3.6783498 -0.10154419)
        Pressure : (0.088243887 3.6803645 -0.10150363)
        Viscous  : (0.0050646169 -0.0020146615 -4.0559433e-05)
    Sum of moments
        Total    : (-2.3450954 0.099396145 0.49207113)
        Pressure : (-2.3457212 0.09846069 0.48837726)
        Viscous  : (0.00062583963 0.0009354549 0.0036938763)


Time = 34

smoothSolver:  Solving for Ux, Initial residual = 0.0026857077, Final residual = 7.2982963e-05, No Iterations 2
smoothSolver:  Solving for Uy, Initial residual = 0.0018407802, Final residual = 4.7024102e-05, No Iterations 2
smoothSolver:  Solving for Uz, Initial residual = 0.0065812729, Final residual = 0.00019531148, No Iterations 2
GAMG:  Solving for p, Initial residual = 0.029382378, Final residual = 0.00015600312, No Iterations 3
GAMG:  Solving for p, Initial residual = 0.0020908944, Final residual = 1.268181e-05, No Iterations 3
GAMG:  Solving for p, Initial residual = 0.00029656994, Final residual = 2.6392706e-06, No Iterations 3
GAMG:  Solving for p, Initial residual = 6.8204511e-05, Final residual = 2.9785041e-07, No Iterations 4
GAMG:  Solving for p, Initial residual = 1.6713856e-05, Final residual = 1.0803353e-07, No Iterations 3
GAMG:  Solving for p, Initial residual = 4.6701942e-06, Final residual = 3.8470761e-08, No Iterations 3
time step continuity errors : sum local = 9.2684664e-09, global = -7.7214427e-10, cumulative = -9.1668198e-09
smoothSolver:  Solving for omega, Initial residual = 0.017723926, Final residual = 0.0011582729, No Iterations 3
smoothSolver:  Solving for k, Initial residual = 0.011398421, Final residual = 0.00072882845, No Iterations 3
ExecutionTime = 31.315 s  ClockTime = 31 s

forces forces write:
    Sum of forces
        Total    : (0.093058286 3.6766731 -0.10093195)
        Pressure : (0.088654808 3.6786077 -0.10070252)
        Viscous  : (0.0044034775 -0.001934578 -0.00022943191)
    Sum of moments
        Total    : (-2.3441986 0.098842247 0.49250389)
        Pressure : (-2.3447652 0.098257688 0.48866142)
        Viscous  : (0.00056658728 0.00058455918 0.0038424669)


Time = 35

smoothSolver:  Solving for Ux, Initial residual = 0.0026323009, Final residual = 7.1123853e-05, No Iterations 2
smoothSolver:  Solving for Uy, Initial residual = 0.0017531021, Final residual = 4.5584994e-05, No Iterations 2
smoothSolver:  Solving for Uz, Initial residual = 0.006409964, Final residual = 0.00019052071, No Iterations 2
GAMG:  Solving for p, Initial residual = 0.027926687, Final residual = 0.00014338104, No Iterations 3
GAMG:  Solving for p, Initial residual = 0.002005779, Final residual = 1.130781e-05, No Iterations 3
GAMG:  Solving for p, Initial residual = 0.00029480324, Final residual = 2.1002238e-06, No Iterations 3
GAMG:  Solving for p, Initial residual = 6.9161345e-05, Final residual = 6.1845338e-07, No Iterations 3
GAMG:  Solving for p, Initial residual = 1.7517419e-05, Final residual = 8.161629e-08, No Iterations 4
GAMG:  Solving for p, Initial residual = 4.8897229e-06, Final residual = 3.4402903e-08, No Iterations 3
time step continuity errors : sum local = 8.2337275e-09, global = -3.5388909e-10, cumulative = -9.5207089e-09
smoothSolver:  Solving for omega, Initial residual = 0.016999326, Final residual = 0.0011108765, No Iterations 3
smoothSolver:  Solving for k, Initial residual = 0.011192878, Final residual = 0.00071542884, No Iterations 3
ExecutionTime = 32.329 s  ClockTime = 32 s

forces forces write:
    Sum of forces
        Total    : (0.093139729 3.6766076 -0.10027823)
        Pressure : (0.089365646 3.678479 -0.099871036)
        Viscous  : (0.0037740839 -0.0018713653 -0.00040719447)
    Sum of moments
        Total    : (-2.3443776 0.098533651 0.49464362)
        Pressure : (-2.3448941 0.09829392 0.4906398)
        Viscous  : (0.00051644453 0.00023973124 0.0040038184)


Time = 36

smoothSolver:  Solving for Ux, Initial residual = 0.0025837766, Final residual = 6.8974987e-05, No Iterations 2
smoothSolver:  Solving for Uy, Initial residual = 0.0017101024, Final residual = 4.5494656e-05, No Iterations 2
smoothSolver:  Solving for Uz, Initial residual = 0.0062661975, Final residual = 0.0001861659, No Iterations 2
GAMG:  Solving for p, Initial residual = 0.026548632, Final residual = 0.00012217929, No Iterations 3
GAMG:  Solving for p, Initial residual = 0.0018734193, Final residual = 9.2775452e-06, No Iterations 3
GAMG:  Solving for p, Initial residual = 0.00028268882, Final residual = 1.4071637e-06, No Iterations 3
GAMG:  Solving for p, Initial residual = 6.760524e-05, Final residual = 2.7830472e-07, No Iterations 3
GAMG:  Solving for p, Initial residual = 1.7066963e-05, Final residual = 7.1027847e-08, No Iterations 3
GAMG:  Solving for p, Initial residual = 4.8816737e-06, Final residual = 2.0725072e-08, No Iterations 3
time step continuity errors : sum local = 4.9289794e-09, global = -7.4975869e-10, cumulative = -1.0270468e-08
smoothSolver:  Solving for omega, Initial residual = 0.016316108, Final residual = 0.0010659691, No Iterations 3
smoothSolver:  Solving for k, Initial residual = 0.011003059, Final residual = 0.00070281517, No Iterations 3
ExecutionTime = 33.019 s  ClockTime = 33 s

forces forces write:
    Sum of forces
        Total    : (0.093468532 3.6775386 -0.099726766)
        Pressure : (0.090266091 3.679387 -0.09916499)
        Viscous  : (0.0032024408 -0.0018484836 -0.00056177607)
    Sum of moments
        Total    : (-2.3452157 0.09846467 0.49753105)
        Pressure : (-2.3457 0.098557831 0.49335314)
        Viscous  : (0.00048434042 -9.3161478e-05 0.0041779131)


Time = 37

smoothSolver:  Solving for Ux, Initial residual = 0.0025343488, Final residual = 6.661948e-05, No Iterations 2
smoothSolver:  Solving for Uy, Initial residual = 0.0016622311, Final residual = 4.4420689e-05, No Iterations 2
smoothSolver:  Solving for Uz, Initial residual = 0.0061118792, Final residual = 0.00018060386, No Iterations 2
GAMG:  Solving for p, Initial residual = 0.025241768, Final residual = 0.00011262516, No Iterations 3
GAMG:  Solving for p, Initial residual = 0.0017097842, Final residual = 8.4543715e-06, No Iterations 3
GAMG:  Solving for p, Initial residual = 0.00026072331, Final residual = 1.6792639e-06, No Iterations 3
GAMG:  Solving for p, Initial residual = 6.3693002e-05, Final residual = 4.2544476e-07, No Iterations 3
GAMG:  Solving for p, Initial residual = 1.62712e-05, Final residual = 1.3238513e-07, No Iterations 3
GAMG:  Solving for p, Initial residual = 4.7938781e-06, Final residual = 3.9166943e-08, No Iterations 3
time step continuity errors : sum local = 9.2515808e-09, global = 8.5500129e-10, cumulative = -9.4154663e-09
smoothSolver:  Solving for omega, Initial residual = 0.015671218, Final residual = 0.0010234323, No Iterations 3
smoothSolver:  Solving for k, Initial residual = 0.010827726, Final residual = 0.00069094267, No Iterations 3
ExecutionTime = 33.8 s  ClockTime = 33 s

forces forces write:
    Sum of forces
        Total    : (0.09377884 3.6784226 -0.099355406)
        Pressure : (0.091134061 3.6802447 -0.098635351)
        Viscous  : (0.002644779 -0.0018220626 -0.00072005453)
    Sum of moments
        Total    : (-2.3460129 0.098463721 0.50004312)
        Pressure : (-2.3464726 0.098887635 0.49567526)
        Viscous  : (0.00045967146 -0.00042391337 0.0043678539)


Time = 38

smoothSolver:  Solving for Ux, Initial residual = 0.0024853172, Final residual = 6.4245424e-05, No Iterations 2
smoothSolver:  Solving for Uy, Initial residual = 0.0015820724, Final residual = 4.151315e-05, No Iterations 2
smoothSolver:  Solving for Uz, Initial residual = 0.0059271532, Final residual = 0.00017318956, No Iterations 2
GAMG:  Solving for p, Initial residual = 0.024055546, Final residual = 0.00011494985, No Iterations 3
GAMG:  Solving for p, Initial residual = 0.0015790592, Final residual = 7.7780091e-06, No Iterations 3
GAMG:  Solving for p, Initial residual = 0.00023769554, Final residual = 1.6335887e-06, No Iterations 3
GAMG:  Solving for p, Initial residual = 5.7976873e-05, Final residual = 4.455435e-07, No Iterations 3
GAMG:  Solving for p, Initial residual = 1.4673147e-05, Final residual = 1.3832878e-07, No Iterations 3
GAMG:  Solving for p, Initial residual = 4.3193385e-06, Final residual = 4.1689651e-08, No Iterations 3
time step continuity errors : sum local = 9.7795809e-09, global = 7.1982646e-11, cumulative = -9.3434837e-09
smoothSolver:  Solving for omega, Initial residual = 0.01506252, Final residual = 0.00098307958, No Iterations 3
smoothSolver:  Solving for k, Initial residual = 0.010665566, Final residual = 0.0006797727, No Iterations 3
ExecutionTime = 35.037 s  ClockTime = 35 s

forces forces write:
    Sum of forces
        Total    : (0.093903589 3.6784678 -0.099114799)
        Pressure : (0.091806449 3.6802592 -0.098209711)
        Viscous  : (0.0020971407 -0.0017913736 -0.00090508785)
    Sum of moments
        Total    : (-2.3462595 0.098339788 0.50158992)
        Pressure : (-2.3466891 0.0990939 0.49701916)
        Viscous  : (0.00042956456 -0.00075411218 0.004570761)


Time = 39

smoothSolver:  Solving for Ux, Initial residual = 0.0024353237, Final residual = 6.216521e-05, No Iterations 2
smoothSolver:  Solving for Uy, Initial residual = 0.001492449, Final residual = 3.8312989e-05, No Iterations 2
smoothSolver:  Solving for Uz, Initial residual = 0.0057208104, Final residual = 0.00016516383, No Iterations 2
GAMG:  Solving for p, Initial residual = 0.0228814, Final residual = 0.00010621386, No Iterations 3
GAMG:  Solving for p, Initial residual = 0.0014839581, Final residual = 6.6061977e-06, No Iterations 3
GAMG:  Solving for p, Initial residual = 0.00022529205, Final residual = 1.0320267e-06, No Iterations 3
GAMG:  Solving for p, Initial residual = 5.3897061e-05, Final residual = 2.3419952e-07, No Iterations 3
GAMG:  Solving for p, Initial residual = 1.3737502e-05, Final residual = 6.0003872e-08, No Iterations 3
GAMG:  Solving for p, Initial residual = 4.0276577e-06, Final residual = 1.714845e-08, No Iterations 3
time step continuity errors : sum local = 3.9939242e-09, global = -7.7620854e-10, cumulative = -1.0119692e-08
smoothSolver:  Solving for omega, Initial residual = 0.014486362, Final residual = 0.00094477483, No Iterations 3
smoothSolver:  Solving for k, Initial residual = 0.010515613, Final residual = 0.00066928063, No Iterations 3
ExecutionTime = 36.74 s  ClockTime = 36 s

forces forces write:
    Sum of forces
        Total    : (0.093814634 3.6775808 -0.098864949)
        Pressure : (0.092256541 3.6793262 -0.097770329)
        Viscous  : (0.0015580926 -0.0017454298 -0.0010946203)
    Sum of moments
        Total    : (-2.34588 0.097998017 0.50229278)
        Pressure : (-2.3462653 0.099084236 0.49750819)
        Viscous  : (0.00038531916 -0.0010862195 0.0047845923)


Time = 40

smoothSolver:  Solving for Ux, Initial residual = 0.0023849602, Final residual = 6.0560924e-05, No Iterations 2
smoothSolver:  Solving for Uy, Initial residual = 0.001415741, Final residual = 3.5940767e-05, No Iterations 2
smoothSolver:  Solving for Uz, Initial residual = 0.005516544, Final residual = 0.00015700559, No Iterations 2
GAMG:  Solving for p, Initial residual = 0.021829996, Final residual = 9.2495977e-05, No Iterations 3
GAMG:  Solving for p, Initial residual = 0.001390204, Final residual = 6.4078694e-06, No Iterations 3
GAMG:  Solving for p, Initial residual = 0.00021401367, Final residual = 1.2569972e-06, No Iterations 3
GAMG:  Solving for p, Initial residual = 5.1373635e-05, Final residual = 3.398722e-07, No Iterations 3
GAMG:  Solving for p, Initial residual = 1.3152694e-05, Final residual = 1.0123883e-07, No Iterations 3
GAMG:  Solving for p, Initial residual = 3.8159554e-06, Final residual = 3.1331208e-08, No Iterations 3
time step continuity errors : sum local = 7.2452512e-09, global = -7.1925377e-10, cumulative = -1.0838946e-08
smoothSolver:  Solving for omega, Initial residual = 0.013940021, Final residual = 0.00090837214, No Iterations 3
smoothSolver:  Solving for k, Initial residual = 0.010377518, Final residual = 0.00065945968, No Iterations 3
ExecutionTime = 37.375 s  ClockTime = 37 s

forces forces write:
    Sum of forces
        Total    : (0.093612881 3.6762324 -0.098466686)
        Pressure : (0.092584409 3.6779189 -0.097227159)
        Viscous  : (0.0010284714 -0.0016865048 -0.0012395266)
    Sum of moments
        Total    : (-2.3451633 0.097472846 0.50271524)
        Pressure : (-2.345489 0.098898173 0.49770886)
        Viscous  : (0.00032570459 -0.001425327 0.0050063753)


Time = 41

smoothSolver:  Solving for Ux, Initial residual = 0.0023331024, Final residual = 5.9263721e-05, No Iterations 2
smoothSolver:  Solving for Uy, Initial residual = 0.0013716091, Final residual = 3.4639019e-05, No Iterations 2
smoothSolver:  Solving for Uz, Initial residual = 0.0053215022, Final residual = 0.00014871287, No Iterations 2
GAMG:  Solving for p, Initial residual = 0.020720116, Final residual = 8.6160103e-05, No Iterations 3
GAMG:  Solving for p, Initial residual = 0.0013119752, Final residual = 6.7906245e-06, No Iterations 3
GAMG:  Solving for p, Initial residual = 0.00020565153, Final residual = 1.4741966e-06, No Iterations 3
GAMG:  Solving for p, Initial residual = 4.9016128e-05, Final residual = 4.0613559e-07, No Iterations 3
GAMG:  Solving for p, Initial residual = 1.263812e-05, Final residual = 1.1982331e-07, No Iterations 3
GAMG:  Solving for p, Initial residual = 3.6397171e-06, Final residual = 3.5667556e-08, No Iterations 3
time step continuity errors : sum local = 8.1919842e-09, global = -6.3501365e-10, cumulative = -1.147396e-08
smoothSolver:  Solving for omega, Initial residual = 0.013422134, Final residual = 0.00087377482, No Iterations 3
smoothSolver:  Solving for k, Initial residual = 0.010249823, Final residual = 0.00065025353, No Iterations 3
ExecutionTime = 38.568 s  ClockTime = 38 s

forces forces write:
    Sum of forces
        Total    : (0.093413617 3.6750686 -0.097982653)
        Pressure : (0.092913267 3.6766782 -0.096588827)
        Viscous  : (0.00050034926 -0.0016095693 -0.0013938258)
    Sum of moments
        Total    : (-2.3445229 0.096888866 0.50340868)
        Pressure : (-2.3447693 0.098655079 0.49817261)
        Viscous  : (0.00024638287 -0.0017662134 0.0052360679)


Time = 42

smoothSolver:  Solving for Ux, Initial residual = 0.0022792893, Final residual = 5.7801077e-05, No Iterations 2
smoothSolver:  Solving for Uy, Initial residual = 0.0013474613, Final residual = 3.4051944e-05, No Iterations 2
smoothSolver:  Solving for Uz, Initial residual = 0.0051404503, Final residual = 0.00014063345, No Iterations 2
GAMG:  Solving for p, Initial residual = 0.019779074, Final residual = 8.1647739e-05, No Iterations 3
GAMG:  Solving for p, Initial residual = 0.0012377379, Final residual = 6.5741827e-06, No Iterations 3
GAMG:  Solving for p, Initial residual = 0.00019355437, Final residual = 1.2891845e-06, No Iterations 3
GAMG:  Solving for p, Initial residual = 4.6205438e-05, Final residual = 3.6080251e-07, No Iterations 3
GAMG:  Solving for p, Initial residual = 1.2065874e-05, Final residual = 1.1123558e-07, No Iterations 3
GAMG:  Solving for p, Initial residual = 3.5151682e-06, Final residual = 3.3615799e-08, No Iterations 3
time step continuity errors : sum local = 7.6715023e-09, global = -5.0159559e-10, cumulative = -1.1975555e-08
smoothSolver:  Solving for omega, Initial residual = 0.012931004, Final residual = 0.00084091667, No Iterations 3
smoothSolver:  Solving for k, Initial residual = 0.010132308, Final residual = 0.00064168533, No Iterations 3
ExecutionTime = 39.308 s  ClockTime = 39 s

forces forces write:
    Sum of forces
        Total    : (0.093286168 3.6744275 -0.097477653)
        Pressure : (0.093309864 3.6759505 -0.095915268)
        Viscous  : (-2.3696266e-05 -0.0015230598 -0.0015623843)
    Sum of moments
        Total    : (-2.3441928 0.096355045 0.50457203)
        Pressure : (-2.3443436 0.098461371 0.49909857)
        Viscous  : (0.00015076156 -0.0021063265 0.0054734559)


Time = 43

smoothSolver:  Solving for Ux, Initial residual = 0.0022220357, Final residual = 5.6062359e-05, No Iterations 2
smoothSolver:  Solving for Uy, Initial residual = 0.0013185318, Final residual = 3.3330387e-05, No Iterations 2
smoothSolver:  Solving for Uz, Initial residual = 0.0049632953, Final residual = 0.00013266109, No Iterations 2
GAMG:  Solving for p, Initial residual = 0.018912712, Final residual = 7.291187e-05, No Iterations 3
GAMG:  Solving for p, Initial residual = 0.0011592785, Final residual = 6.0337506e-06, No Iterations 3
GAMG:  Solving for p, Initial residual = 0.00018341134, Final residual = 1.0307609e-06, No Iterations 3
GAMG:  Solving for p, Initial residual = 4.3645559e-05, Final residual = 2.7950612e-07, No Iterations 3
GAMG:  Solving for p, Initial residual = 1.1482398e-05, Final residual = 9.2370673e-08, No Iterations 3
GAMG:  Solving for p, Initial residual = 3.3373466e-06, Final residual = 3.0091453e-08, No Iterations 3
time step continuity errors : sum local = 6.8263345e-09, global = -1.3507057e-10, cumulative = -1.2110626e-08
smoothSolver:  Solving for omega, Initial residual = 0.012464801, Final residual = 0.0008096846, No Iterations 3
smoothSolver:  Solving for k, Initial residual = 0.010023626, Final residual = 0.00063368264, No Iterations 3
ExecutionTime = 40.182 s  ClockTime = 40 s

forces forces write:
    Sum of forces
        Total    : (0.093222322 3.6742115 -0.096974967)
        Pressure : (0.093762047 3.6756453 -0.095255231)
        Viscous  : (-0.00053972546 -0.0014337153 -0.0017197354)
    Sum of moments
        Total    : (-2.3441293 0.095903668 0.50603805)
        Pressure : (-2.3441752 0.098350723 0.50031909)
        Viscous  : (4.5904505e-05 -0.002447055 0.0057189659)


Time = 44

smoothSolver:  Solving for Ux, Initial residual = 0.0021678046, Final residual = 5.4361834e-05, No Iterations 2
smoothSolver:  Solving for Uy, Initial residual = 0.0012657762, Final residual = 3.1973911e-05, No Iterations 2
smoothSolver:  Solving for Uz, Initial residual = 0.0047801508, Final residual = 0.00012509595, No Iterations 2
GAMG:  Solving for p, Initial residual = 0.01804276, Final residual = 6.7287572e-05, No Iterations 3
GAMG:  Solving for p, Initial residual = 0.0010958715, Final residual = 5.2422211e-06, No Iterations 3
GAMG:  Solving for p, Initial residual = 0.00017508559, Final residual = 8.8377323e-07, No Iterations 3
GAMG:  Solving for p, Initial residual = 4.2145291e-05, Final residual = 2.2206086e-07, No Iterations 3
GAMG:  Solving for p, Initial residual = 1.1025943e-05, Final residual = 7.3151083e-08, No Iterations 3
GAMG:  Solving for p, Initial residual = 3.2018894e-06, Final residual = 2.5110031e-08, No Iterations 3
time step continuity errors : sum local = 5.6632013e-09, global = 1.1694586e-10, cumulative = -1.199368e-08
smoothSolver:  Solving for omega, Initial residual = 0.012021606, Final residual = 0.00077996711, No Iterations 3
smoothSolver:  Solving for k, Initial residual = 0.009923784, Final residual = 0.00062625958, No Iterations 3
ExecutionTime = 40.912 s  ClockTime = 41 s

forces forces write:
    Sum of forces
        Total    : (0.093171864 3.6740634 -0.096496837)
        Pressure : (0.094212858 3.675416 -0.094624184)
        Viscous  : (-0.0010409941 -0.0013526167 -0.0018726529)
    Sum of moments
        Total    : (-2.3441244 0.09550088 0.50749442)
        Pressure : (-2.3440578 0.098286624 0.50152234)
        Viscous  : (-6.6630515e-05 -0.0027857439 0.0059720744)


Time = 45

smoothSolver:  Solving for Ux, Initial residual = 0.0021188029, Final residual = 5.2959129e-05, No Iterations 2
smoothSolver:  Solving for Uy, Initial residual = 0.0011994845, Final residual = 3.0038931e-05, No Iterations 2
smoothSolver:  Solving for Uz, Initial residual = 0.0045906313, Final residual = 0.00011807434, No Iterations 2
GAMG:  Solving for p, Initial residual = 0.017284715, Final residual = 6.5438174e-05, No Iterations 3
GAMG:  Solving for p, Initial residual = 0.0010282034, Final residual = 4.3366244e-06, No Iterations 3
GAMG:  Solving for p, Initial residual = 0.00016544718, Final residual = 8.0350941e-07, No Iterations 3
GAMG:  Solving for p, Initial residual = 4.0263097e-05, Final residual = 2.2627287e-07, No Iterations 3
GAMG:  Solving for p, Initial residual = 1.0487265e-05, Final residual = 7.6195167e-08, No Iterations 3
GAMG:  Solving for p, Initial residual = 3.0577348e-06, Final residual = 2.5503426e-08, No Iterations 3
[...]
smoothSolver:  Solving for k, Initial residual = 0.0014182612, Final residual = 7.0486309e-05, No Iterations 3
ExecutionTime = 187.623 s  ClockTime = 187 s

forces forces write:
    Sum of forces
        Total    : (0.088329906 3.741144 -0.059492915)
        Pressure : (0.10146673 3.6915604 -0.059262663)
        Viscous  : (-0.013136828 0.049583595 -0.0002302518)
    Sum of moments
        Total    : (-2.3732578 0.065559116 0.57560805)
        Pressure : (-2.3418867 0.081592243 0.52942944)
        Viscous  : (-0.031371111 -0.016033127 0.046178608)


Time = 164

smoothSolver:  Solving for Ux, Initial residual = 0.00011476419, Final residual = 3.0587615e-06, No Iterations 2
smoothSolver:  Solving for Uy, Initial residual = 0.00010967943, Final residual = 3.6457474e-06, No Iterations 2
smoothSolver:  Solving for Uz, Initial residual = 0.00031635935, Final residual = 9.3296751e-06, No Iterations 2
GAMG:  Solving for p, Initial residual = 0.00032599912, Final residual = 2.6759989e-06, No Iterations 3
GAMG:  Solving for p, Initial residual = 3.1071488e-05, Final residual = 1.5139096e-07, No Iterations 4
GAMG:  Solving for p, Initial residual = 4.9204569e-06, Final residual = 4.6608975e-08, No Iterations 3
GAMG:  Solving for p, Initial residual = 1.2347672e-06, Final residual = 1.1845357e-08, No Iterations 3
GAMG:  Solving for p, Initial residual = 3.252832e-07, Final residual = 7.692617e-09, No Iterations 2
GAMG:  Solving for p, Initial residual = 9.8462836e-08, Final residual = 8.0728004e-09, No Iterations 1
time step continuity errors : sum local = 1.2785869e-09, global = -2.3516777e-11, cumulative = -1.1395971e-08
smoothSolver:  Solving for omega, Initial residual = 0.00018683293, Final residual = 9.9973661e-06, No Iterations 3
smoothSolver:  Solving for k, Initial residual = 0.0013700923, Final residual = 6.8067725e-05, No Iterations 3
ExecutionTime = 188.649 s  ClockTime = 188 s

forces forces write:
    Sum of forces
        Total    : (0.088344681 3.74133 -0.059458079)
        Pressure : (0.10147873 3.691614 -0.059221488)
        Viscous  : (-0.013134045 0.049715956 -0.00023659174)
    Sum of moments
        Total    : (-2.3733339 0.065538507 0.57573875)
        Pressure : (-2.3418984 0.081566796 0.52946465)
        Viscous  : (-0.031435453 -0.016028289 0.046274096)


Time = 165

smoothSolver:  Solving for Ux, Initial residual = 0.00011224834, Final residual = 2.9872084e-06, No Iterations 2
smoothSolver:  Solving for Uy, Initial residual = 0.00010637016, Final residual = 3.517631e-06, No Iterations 2
smoothSolver:  Solving for Uz, Initial residual = 0.00030712986, Final residual = 9.0122178e-06, No Iterations 2
GAMG:  Solving for p, Initial residual = 0.00031750592, Final residual = 2.6091602e-06, No Iterations 3
GAMG:  Solving for p, Initial residual = 3.0294173e-05, Final residual = 1.4557277e-07, No Iterations 4
GAMG:  Solving for p, Initial residual = 4.8014399e-06, Final residual = 4.5520271e-08, No Iterations 3
GAMG:  Solving for p, Initial residual = 1.209158e-06, Final residual = 1.156993e-08, No Iterations 3
GAMG:  Solving for p, Initial residual = 3.1924205e-07, Final residual = 7.6097091e-09, No Iterations 2
GAMG:  Solving for p, Initial residual = 9.6749068e-08, Final residual = 7.9621417e-09, No Iterations 1
time step continuity errors : sum local = 1.2600003e-09, global = -1.0886067e-11, cumulative = -1.1406857e-08
smoothSolver:  Solving for omega, Initial residual = 0.00018377892, Final residual = 9.8377244e-06, No Iterations 3
smoothSolver:  Solving for k, Initial residual = 0.0013236649, Final residual = 6.5741749e-05, No Iterations 3
ExecutionTime = 189.209 s  ClockTime = 189 s

forces forces write:
    Sum of forces
        Total    : (0.08835944 3.7415118 -0.059424079)
        Pressure : (0.10149031 3.6916657 -0.059181681)
        Viscous  : (-0.013130869 0.04984607 -0.00024239875)
    Sum of moments
        Total    : (-2.3734081 0.065518521 0.57586683)
        Pressure : (-2.3419101 0.081542348 0.52949876)
        Viscous  : (-0.031498002 -0.016023827 0.046368073)


Time = 166

smoothSolver:  Solving for Ux, Initial residual = 0.00010978951, Final residual = 2.9171673e-06, No Iterations 2
smoothSolver:  Solving for Uy, Initial residual = 0.00010311021, Final residual = 3.3919868e-06, No Iterations 2
smoothSolver:  Solving for Uz, Initial residual = 0.00029797439, Final residual = 8.7012261e-06, No Iterations 2
GAMG:  Solving for p, Initial residual = 0.00030925742, Final residual = 2.5448495e-06, No Iterations 3
GAMG:  Solving for p, Initial residual = 2.9611335e-05, Final residual = 1.400114e-07, No Iterations 4
GAMG:  Solving for p, Initial residual = 4.7030498e-06, Final residual = 4.4532904e-08, No Iterations 3
GAMG:  Solving for p, Initial residual = 1.1879793e-06, Final residual = 1.1268523e-08, No Iterations 3
GAMG:  Solving for p, Initial residual = 3.136224e-07, Final residual = 7.495956e-09, No Iterations 2
GAMG:  Solving for p, Initial residual = 9.4995185e-08, Final residual = 7.8228239e-09, No Iterations 1
time step continuity errors : sum local = 1.2369579e-09, global = -1.1399941e-11, cumulative = -1.1418257e-08
smoothSolver:  Solving for omega, Initial residual = 0.00018080787, Final residual = 9.6823553e-06, No Iterations 3
smoothSolver:  Solving for k, Initial residual = 0.0012789311, Final residual = 6.3505373e-05, No Iterations 3
ExecutionTime = 189.83 s  ClockTime = 190 s

forces forces write:
    Sum of forces
        Total    : (0.088374148 3.7416895 -0.059390761)
        Pressure : (0.1015015 3.6917156 -0.059143181)
        Viscous  : (-0.013127353 0.04997386 -0.00024758044)
    Sum of moments
        Total    : (-2.3734804 0.065499011 0.57599232)
        Pressure : (-2.3419216 0.081518848 0.52953185)
        Viscous  : (-0.031558752 -0.016019836 0.046460469)


Time = 167

smoothSolver:  Solving for Ux, Initial residual = 0.00010738777, Final residual = 2.8487323e-06, No Iterations 2
smoothSolver:  Solving for Uy, Initial residual = 9.9887992e-05, Final residual = 3.2688148e-06, No Iterations 2
smoothSolver:  Solving for Uz, Initial residual = 0.00028892174, Final residual = 8.3975437e-06, No Iterations 2
GAMG:  Solving for p, Initial residual = 0.00030091502, Final residual = 2.4776939e-06, No Iterations 3
GAMG:  Solving for p, Initial residual = 2.8920352e-05, Final residual = 1.3473864e-07, No Iterations 4
GAMG:  Solving for p, Initial residual = 4.5946376e-06, Final residual = 4.3222272e-08, No Iterations 3
GAMG:  Solving for p, Initial residual = 1.1596756e-06, Final residual = 1.0844935e-08, No Iterations 3
GAMG:  Solving for p, Initial residual = 3.0610849e-07, Final residual = 7.2531759e-09, No Iterations 2
GAMG:  Solving for p, Initial residual = 9.2645375e-08, Final residual = 7.5728421e-09, No Iterations 1
time step continuity errors : sum local = 1.19651e-09, global = -2.8354832e-11, cumulative = -1.1446612e-08
smoothSolver:  Solving for omega, Initial residual = 0.00017791145, Final residual = 9.5318459e-06, No Iterations 3
smoothSolver:  Solving for k, Initial residual = 0.0012358369, Final residual = 6.1355432e-05, No Iterations 3
ExecutionTime = 190.59 s  ClockTime = 190 s

forces forces write:
    Sum of forces
        Total    : (0.088388733 3.741863 -0.059358258)
        Pressure : (0.10151229 3.6917638 -0.059105928)
        Viscous  : (-0.01312356 0.050099203 -0.00025232948)
    Sum of moments
        Total    : (-2.3735507 0.065480088 0.57611509)
        Pressure : (-2.341933 0.081496239 0.52956392)
        Viscous  : (-0.031617737 -0.01601615 0.046551171)


Time = 168

smoothSolver:  Solving for Ux, Initial residual = 0.00010503707, Final residual = 2.7816294e-06, No Iterations 2
smoothSolver:  Solving for Uy, Initial residual = 9.6712794e-05, Final residual = 3.1484771e-06, No Iterations 2
smoothSolver:  Solving for Uz, Initial residual = 0.00027998134, Final residual = 8.1007587e-06, No Iterations 2
GAMG:  Solving for p, Initial residual = 0.00029277411, Final residual = 2.4116074e-06, No Iterations 3
GAMG:  Solving for p, Initial residual = 2.8191297e-05, Final residual = 1.3031018e-07, No Iterations 4
GAMG:  Solving for p, Initial residual = 4.4924651e-06, Final residual = 4.174559e-08, No Iterations 3
GAMG:  Solving for p, Initial residual = 1.1367306e-06, Final residual = 1.0474578e-08, No Iterations 3
GAMG:  Solving for p, Initial residual = 3.0000109e-07, Final residual = 7.0380133e-09, No Iterations 2
GAMG:  Solving for p, Initial residual = 9.0790743e-08, Final residual = 7.3640762e-09, No Iterations 1
time step continuity errors : sum local = 1.1626696e-09, global = -3.6128197e-11, cumulative = -1.148274e-08
smoothSolver:  Solving for omega, Initial residual = 0.00017508698, Final residual = 9.3845247e-06, No Iterations 3
smoothSolver:  Solving for k, Initial residual = 0.0011943356, Final residual = 5.9288983e-05, No Iterations 3
ExecutionTime = 191.16 s  ClockTime = 191 s

forces forces write:
    Sum of forces
        Total    : (0.088403243 3.7420325 -0.059326458)
        Pressure : (0.10152275 3.6918104 -0.059069692)
        Viscous  : (-0.013119503 0.050222092 -0.0002567664)
    Sum of moments
        Total    : (-2.3736194 0.065461678 0.57623529)
        Pressure : (-2.3419443 0.081474363 0.52959512)
        Viscous  : (-0.031675038 -0.016012685 0.046640167)


Time = 169

smoothSolver:  Solving for Ux, Initial residual = 0.00010273347, Final residual = 2.7158888e-06, No Iterations 2
smoothSolver:  Solving for Uy, Initial residual = 9.3587782e-05, Final residual = 3.0310288e-06, No Iterations 2
smoothSolver:  Solving for Uz, Initial residual = 0.00027115114, Final residual = 7.811477e-06, No Iterations 2
GAMG:  Solving for p, Initial residual = 0.00028505241, Final residual = 2.3507639e-06, No Iterations 3
GAMG:  Solving for p, Initial residual = 2.752144e-05, Final residual = 1.259707e-07, No Iterations 4
GAMG:  Solving for p, Initial residual = 4.3913536e-06, Final residual = 4.0278234e-08, No Iterations 3
GAMG:  Solving for p, Initial residual = 1.107162e-06, Final residual = 1.0165822e-08, No Iterations 3
GAMG:  Solving for p, Initial residual = 2.9297342e-07, Final residual = 6.8555221e-09, No Iterations 2
GAMG:  Solving for p, Initial residual = 8.8585274e-08, Final residual = 7.1803962e-09, No Iterations 1
time step continuity errors : sum local = 1.1328727e-09, global = -3.9393234e-11, cumulative = -1.1522133e-08
smoothSolver:  Solving for omega, Initial residual = 0.0001723329, Final residual = 9.2400072e-06, No Iterations 3
smoothSolver:  Solving for k, Initial residual = 0.0011543755, Final residual = 5.7302938e-05, No Iterations 3
ExecutionTime = 191.71 s  ClockTime = 191 s

forces forces write:
    Sum of forces
        Total    : (0.088417761 3.7421982 -0.059295108)
        Pressure : (0.10153291 3.6918556 -0.059034324)
        Viscous  : (-0.013115151 0.050342629 -0.00026078391)
    Sum of moments
        Total    : (-2.3736863 0.065443595 0.57635314)
        Pressure : (-2.3419556 0.081453126 0.52962557)
        Viscous  : (-0.031730686 -0.016009531 0.046727572)


Time = 170

smoothSolver:  Solving for Ux, Initial residual = 0.00010047689, Final residual = 2.651414e-06, No Iterations 2
smoothSolver:  Solving for Uy, Initial residual = 9.0522731e-05, Final residual = 2.9172107e-06, No Iterations 2
smoothSolver:  Solving for Uz, Initial residual = 0.00026246188, Final residual = 7.529976e-06, No Iterations 2
GAMG:  Solving for p, Initial residual = 0.00027765667, Final residual = 2.2953881e-06, No Iterations 3
GAMG:  Solving for p, Initial residual = 2.6897545e-05, Final residual = 1.2196187e-07, No Iterations 4
GAMG:  Solving for p, Initial residual = 4.2965401e-06, Final residual = 3.9407869e-08, No Iterations 3
GAMG:  Solving for p, Initial residual = 1.0857833e-06, Final residual = 9.8451387e-09, No Iterations 3
GAMG:  Solving for p, Initial residual = 2.8753062e-07, Final residual = 6.6398303e-09, No Iterations 2
GAMG:  Solving for p, Initial residual = 8.6857869e-08, Final residual = 6.9561471e-09, No Iterations 1
time step continuity errors : sum local = 1.0967555e-09, global = -4.7897396e-11, cumulative = -1.157003e-08
smoothSolver:  Solving for omega, Initial residual = 0.00016964247, Final residual = 9.0981213e-06, No Iterations 3
smoothSolver:  Solving for k, Initial residual = 0.0011159076, Final residual = 5.5394444e-05, No Iterations 3
ExecutionTime = 192.62 s  ClockTime = 192 s

forces forces write:
    Sum of forces
        Total    : (0.088432274 3.7423605 -0.059264245)
        Pressure : (0.10154284 3.6918996 -0.058999721)
        Viscous  : (-0.013110562 0.050460837 -0.00026452409)
    Sum of moments
        Total    : (-2.3737515 0.065425897 0.5764687)
        Pressure : (-2.3419668 0.081432451 0.52965532)
        Viscous  : (-0.031784719 -0.016006553 0.046813378)


Time = 171

smoothSolver:  Solving for Ux, Initial residual = 9.8264858e-05, Final residual = 2.5882415e-06, No Iterations 2
smoothSolver:  Solving for Uy, Initial residual = 8.750852e-05, Final residual = 2.8070389e-06, No Iterations 2
smoothSolver:  Solving for Uz, Initial residual = 0.00025390499, Final residual = 7.2557863e-06, No Iterations 2
GAMG:  Solving for p, Initial residual = 0.00027049683, Final residual = 2.2440679e-06, No Iterations 3
GAMG:  Solving for p, Initial residual = 2.628571e-05, Final residual = 1.1839712e-07, No Iterations 4
GAMG:  Solving for p, Initial residual = 4.1960673e-06, Final residual = 3.8516733e-08, No Iterations 3
GAMG:  Solving for p, Initial residual = 1.0645414e-06, Final residual = 9.6033266e-09, No Iterations 3
GAMG:  Solving for p, Initial residual = 2.8195965e-07, Final residual = 6.4719656e-09, No Iterations 2
GAMG:  Solving for p, Initial residual = 8.527427e-08, Final residual = 6.7763966e-09, No Iterations 1
time step continuity errors : sum local = 1.0677297e-09, global = -4.8268444e-11, cumulative = -1.1618299e-08
smoothSolver:  Solving for omega, Initial residual = 0.00016700703, Final residual = 8.9588467e-06, No Iterations 3
smoothSolver:  Solving for k, Initial residual = 0.0010788832, Final residual = 5.3560617e-05, No Iterations 3
ExecutionTime = 193.235 s  ClockTime = 193 s

forces forces write:
    Sum of forces
        Total    : (0.08844677 3.7425189 -0.059234068)
        Pressure : (0.10155253 3.6919424 -0.05896588)
        Viscous  : (-0.01310576 0.050576569 -0.00026818853)
    Sum of moments
        Total    : (-2.3738149 0.065408737 0.57658186)
        Pressure : (-2.3419778 0.081412316 0.52968442)
        Viscous  : (-0.031837172 -0.016003579 0.046897441)


Time = 172

smoothSolver:  Solving for Ux, Initial residual = 9.6093769e-05, Final residual = 2.5264697e-06, No Iterations 2
smoothSolver:  Solving for Uy, Initial residual = 8.4551269e-05, Final residual = 2.7002643e-06, No Iterations 2
smoothSolver:  Solving for Uz, Initial residual = 0.00024549205, Final residual = 6.9895578e-06, No Iterations 2
GAMG:  Solving for p, Initial residual = 0.00026349709, Final residual = 2.1958261e-06, No Iterations 3
GAMG:  Solving for p, Initial residual = 2.5755255e-05, Final residual = 1.1506456e-07, No Iterations 4
GAMG:  Solving for p, Initial residual = 4.0953949e-06, Final residual = 3.7485145e-08, No Iterations 3
GAMG:  Solving for p, Initial residual = 1.0428892e-06, Final residual = 9.2768201e-09, No Iterations 3
GAMG:  Solving for p, Initial residual = 2.7560758e-07, Final residual = 6.2469477e-09, No Iterations 2
GAMG:  Solving for p, Initial residual = 8.348745e-08, Final residual = 6.5463427e-09, No Iterations 1
time step continuity errors : sum local = 1.0308498e-09, global = -5.2886757e-11, cumulative = -1.1671186e-08
smoothSolver:  Solving for omega, Initial residual = 0.00016442145, Final residual = 8.8217351e-06, No Iterations 3
smoothSolver:  Solving for k, Initial residual = 0.0010432551, Final residual = 5.1798697e-05, No Iterations 3
ExecutionTime = 193.785 s  ClockTime = 193 s

forces forces write:
    Sum of forces
        Total    : (0.088461315 3.742674 -0.059204031)
        Pressure : (0.10156202 3.691984 -0.058932715)
        Viscous  : (-0.013100709 0.050689962 -0.00027131611)
    Sum of moments
        Total    : (-2.3738767 0.065391628 0.57669287)
        Pressure : (-2.3419886 0.081392647 0.52971295)
        Viscous  : (-0.031888073 -0.01600102 0.046979914)


Time = 173

smoothSolver:  Solving for Ux, Initial residual = 9.3964387e-05, Final residual = 2.4658864e-06, No Iterations 2
smoothSolver:  Solving for Uy, Initial residual = 8.1653553e-05, Final residual = 2.5965913e-06, No Iterations 2
smoothSolver:  Solving for Uz, Initial residual = 0.00023725017, Final residual = 6.7317391e-06, No Iterations 2
GAMG:  Solving for p, Initial residual = 0.00025677666, Final residual = 2.1475494e-06, No Iterations 3
GAMG:  Solving for p, Initial residual = 2.5224612e-05, Final residual = 1.1173538e-07, No Iterations 4
GAMG:  Solving for p, Initial residual = 4.0100901e-06, Final residual = 3.6461084e-08, No Iterations 3
GAMG:  Solving for p, Initial residual = 1.0216102e-06, Final residual = 8.9675544e-09, No Iterations 3
GAMG:  Solving for p, Initial residual = 2.6997692e-07, Final residual = 6.0388051e-09, No Iterations 2
GAMG:  Solving for p, Initial residual = 8.1812154e-08, Final residual = 6.3303039e-09, No Iterations 1
time step continuity errors : sum local = 9.9624817e-10, global = -5.6344527e-11, cumulative = -1.172753e-08
smoothSolver:  Solving for omega, Initial residual = 0.00016188117, Final residual = 8.6864665e-06, No Iterations 3
smoothSolver:  Solving for k, Initial residual = 0.001008976, Final residual = 5.0105926e-05, No Iterations 3
ExecutionTime = 194.605 s  ClockTime = 194 s

forces forces write:
    Sum of forces
        Total    : (0.08847588 3.7428256 -0.05917419)
        Pressure : (0.10157133 3.6920245 -0.058900188)
        Viscous  : (-0.013095454 0.050801095 -0.00027400217)
    Sum of moments
        Total    : (-2.3739368 0.065374621 0.57680182)
        Pressure : (-2.3419993 0.081373416 0.52974098)
        Viscous  : (-0.031937486 -0.015998795 0.047060839)


Time = 174

smoothSolver:  Solving for Ux, Initial residual = 9.1870875e-05, Final residual = 2.4063876e-06, No Iterations 2
smoothSolver:  Solving for Uy, Initial residual = 7.8816355e-05, Final residual = 2.4961905e-06, No Iterations 2
smoothSolver:  Solving for Uz, Initial residual = 0.00022918515, Final residual = 6.4820391e-06, No Iterations 2
GAMG:  Solving for p, Initial residual = 0.00025016836, Final residual = 2.0997999e-06, No Iterations 3
GAMG:  Solving for p, Initial residual = 2.467212e-05, Final residual = 1.0835156e-07, No Iterations 4
GAMG:  Solving for p, Initial residual = 3.9201225e-06, Final residual = 3.5472344e-08, No Iterations 3
GAMG:  Solving for p, Initial residual = 9.994907e-07, Final residual = 8.6543047e-09, No Iterations 3
GAMG:  Solving for p, Initial residual = 2.6402744e-07, Final residual = 5.8401315e-09, No Iterations 2
GAMG:  Solving for p, Initial residual = 8.0011441e-08, Final residual = 6.1098509e-09, No Iterations 1
time step continuity errors : sum local = 9.6101798e-10, global = -5.8918614e-11, cumulative = -1.1786449e-08
smoothSolver:  Solving for omega, Initial residual = 0.00015938043, Final residual = 8.5528407e-06, No Iterations 3
smoothSolver:  Solving for k, Initial residual = 0.0009759991, Final residual = 4.847963e-05, No Iterations 3
ExecutionTime = 195.388 s  ClockTime = 195 s


SIMPLE solution converged in 174 iterations

forces forces write:
    Sum of forces
        Total    : (0.088490415 3.742974 -0.059144564)
        Pressure : (0.10158044 3.692064 -0.058868328)
        Viscous  : (-0.013090026 0.050910026 -0.00027623609)
    Sum of moments
        Total    : (-2.3739953 0.065357749 0.57690867)
        Pressure : (-2.3420098 0.081354647 0.52976844)
        Viscous  : (-0.031985445 -0.015996897 0.047140229)


End

Finalising parallel run
