/*---------------------------------------------------------------------------*\
| =========                 |                                                 |
| \\      /  F ield         | OpenFOAM: The Open Source CFD Toolbox           |
|  \\    /   O peration     | Version:  v2012                                 |
|   \\  /    A nd           | Website:  www.openfoam.com                      |
|    \\/     M anipulation  |                                                 |
\*---------------------------------------------------------------------------*/
Build  : 79e353b84e-20201222 OPENFOAM=2012
Arch   : "LSB;label=32;scalar=64"
Exec   : simpleFoam -parallel
Date   : Apr 17 2022
Time   : 22:00:46
Host   : DESKTOP-OGTHBU9
PID    : 7492
I/O    : uncollated
Case   : C:/Users/ZEEMAR~1/AppData/Local/Temp/case
nProcs : 4
Hosts  :
(
    (DESKTOP-OGTHBU9 4)
)
Pstream initialized with:
    floatTransfer      : 0
    nProcsSimpleSum    : 0
    commsType          : nonBlocking
    polling iterations : 0
trapFpe: Floating point exception trapping enabled (FOAM_SIGFPE).
fileModificationChecking : Monitoring run-time modified files using timeStampMaster (fileModificationSkew 5, maxFileModificationPolls 20)
allowSystemOperations : Allowing user-supplied system call operations

// * * * * * * * * * * * * * * * * * * * * * * * * * * * * * * * * * * * * * //
Create time

Create mesh for time = 0


SIMPLE: convergence criteria
    field p	 tolerance 0.001
    field U	 tolerance 0.001
    field "(k|epsilon|omega|f|v2|nuTilda)"	 tolerance 0.001

Reading field p

Reading field U

Reading/calculating face flux field phi

Selecting incompressible transport model Newtonian
Selecting turbulence model type RAS
Selecting RAS turbulence model kOmegaSST
Selecting patchDistMethod meshWave
RAS
{
    RASModel        kOmegaSST;
    turbulence      on;
    printCoeffs     on;
    alphaK1         0.85;
    alphaK2         1;
    alphaOmega1     0.5;
    alphaOmega2     0.856;
    gamma1          0.55555556;
    gamma2          0.44;
    beta1           0.075;
    beta2           0.0828;
    betaStar        0.09;
    a1              0.31;
    b1              1;
    c1              10;
    F3              false;
    decayControl    false;
    kInf            0;
    omegaInf        0;
}

No MRF models present

No finite volume options present

Starting time loop

forces forces:
    rho: rhoInf
    Freestream density (rhoInf) set to 1
    Not including porosity effects
    Fields will be written

Time = 1

smoothSolver:  Solving for Ux, Initial residual = 0.024397766, Final residual = 0.00047985329, No Iterations 2
smoothSolver:  Solving for Uy, Initial residual = 0.079117014, Final residual = 0.0013758977, No Iterations 2
smoothSolver:  Solving for Uz, Initial residual = 0.086261701, Final residual = 0.007731047, No Iterations 1
GAMG:  Solving for p, Initial residual = 0.48478801, Final residual = 0.0023452141, No Iterations 4
GAMG:  Solving for p, Initial residual = 0.029490383, Final residual = 0.00013793816, No Iterations 4
GAMG:  Solving for p, Initial residual = 0.0034284513, Final residual = 2.5751527e-05, No Iterations 4
GAMG:  Solving for p, Initial residual = 0.00066197818, Final residual = 5.6380833e-06, No Iterations 4
GAMG:  Solving for p, Initial residual = 0.00017598298, Final residual = 1.476619e-06, No Iterations 4
GAMG:  Solving for p, Initial residual = 5.0958008e-05, Final residual = 4.0416332e-07, No Iterations 4
time step continuity errors : sum local = 1.4094888e-07, global = -7.8646154e-09, cumulative = -7.8646154e-09
smoothSolver:  Solving for omega, Initial residual = 1, Final residual = 0.059396755, No Iterations 3
smoothSolver:  Solving for k, Initial residual = 1, Final residual = 0.081827957, No Iterations 2
ExecutionTime = 6.876 s  ClockTime = 7 s

forces forces write:
    Sum of forces
        Total    : (0.0722187 3.4475403 -0.11070128)
        Pressure : (0.071926733 3.4452399 -0.1104052)
        Viscous  : (0.00029196775 0.0023003977 -0.00029608413)
    Sum of moments
        Total    : (-2.1962444 0.091891366 0.54466843)
        Pressure : (-2.1949936 0.091793072 0.54386499)
        Viscous  : (-0.0012507219 9.8294534e-05 0.00080344131)


Time = 2

smoothSolver:  Solving for Ux, Initial residual = 0.012700178, Final residual = 0.00019807875, No Iterations 2
smoothSolver:  Solving for Uy, Initial residual = 0.032172424, Final residual = 0.0031630317, No Iterations 1
smoothSolver:  Solving for Uz, Initial residual = 0.045638412, Final residual = 0.0041261272, No Iterations 1
GAMG:  Solving for p, Initial residual = 0.41432579, Final residual = 0.0024819919, No Iterations 4
GAMG:  Solving for p, Initial residual = 0.030889946, Final residual = 0.00014882797, No Iterations 4
GAMG:  Solving for p, Initial residual = 0.0036021545, Final residual = 2.8784015e-05, No Iterations 4
GAMG:  Solving for p, Initial residual = 0.00074115344, Final residual = 6.9485628e-06, No Iterations 4
GAMG:  Solving for p, Initial residual = 0.00019894847, Final residual = 1.8729162e-06, No Iterations 4
GAMG:  Solving for p, Initial residual = 5.8701995e-05, Final residual = 5.2925844e-07, No Iterations 4
time step continuity errors : sum local = 1.7723364e-07, global = -1.0290661e-08, cumulative = -1.8155276e-08
smoothSolver:  Solving for omega, Initial residual = 0.50428545, Final residual = 0.030925992, No Iterations 3
smoothSolver:  Solving for k, Initial residual = 0.22385491, Final residual = 0.018325714, No Iterations 2
ExecutionTime = 10.006 s  ClockTime = 10 s

forces forces write:
    Sum of forces
        Total    : (0.088810045 4.1253913 -0.12495416)
        Pressure : (0.088386068 4.1214895 -0.12454048)
        Viscous  : (0.00042397758 0.0039017223 -0.00041367227)
    Sum of moments
        Total    : (-2.6171021 0.11334377 0.53856663)
        Pressure : (-2.6149787 0.11315434 0.53759787)
        Viscous  : (-0.0021234008 0.00018943029 0.00096876311)


Time = 3

smoothSolver:  Solving for Ux, Initial residual = 0.012770216, Final residual = 0.00023192192, No Iterations 2
smoothSolver:  Solving for Uy, Initial residual = 0.027151549, Final residual = 0.00058592228, No Iterations 2
smoothSolver:  Solving for Uz, Initial residual = 0.032762441, Final residual = 0.00057969689, No Iterations 2
GAMG:  Solving for p, Initial residual = 0.26917875, Final residual = 0.0011069135, No Iterations 4
GAMG:  Solving for p, Initial residual = 0.019199026, Final residual = 0.00017605793, No Iterations 3
GAMG:  Solving for p, Initial residual = 0.0026202146, Final residual = 1.8286264e-05, No Iterations 4
GAMG:  Solving for p, Initial residual = 0.00057546401, Final residual = 4.3069256e-06, No Iterations 4
GAMG:  Solving for p, Initial residual = 0.00015035751, Final residual = 1.2215042e-06, No Iterations 4
GAMG:  Solving for p, Initial residual = 4.4874201e-05, Final residual = 3.6190393e-07, No Iterations 4
time step continuity errors : sum local = 1.0085565e-07, global = -6.2877986e-09, cumulative = -2.4443075e-08
smoothSolver:  Solving for omega, Initial residual = 0.37316864, Final residual = 0.024324376, No Iterations 3
smoothSolver:  Solving for k, Initial residual = 0.12493605, Final residual = 0.0065505764, No Iterations 3
ExecutionTime = 12.9 s  ClockTime = 13 s

forces forces write:
    Sum of forces
        Total    : (0.081488106 4.2355598 -0.13685792)
        Pressure : (0.080775584 4.2314077 -0.13654419)
        Viscous  : (0.00071252202 0.0041520637 -0.00031373204)
    Sum of moments
        Total    : (-2.6829229 0.11515169 0.49271247)
        Pressure : (-2.6806957 0.11482305 0.49164654)
        Viscous  : (-0.0022272319 0.0003286452 0.0010659313)


Time = 4

smoothSolver:  Solving for Ux, Initial residual = 0.013660523, Final residual = 0.00028832131, No Iterations 2
smoothSolver:  Solving for Uy, Initial residual = 0.028401883, Final residual = 0.00073396234, No Iterations 2
smoothSolver:  Solving for Uz, Initial residual = 0.029944336, Final residual = 0.00065170357, No Iterations 2
GAMG:  Solving for p, Initial residual = 0.27479138, Final residual = 0.0012278124, No Iterations 4
GAMG:  Solving for p, Initial residual = 0.019623667, Final residual = 0.0001930694, No Iterations 3
GAMG:  Solving for p, Initial residual = 0.0022683779, Final residual = 2.0432944e-05, No Iterations 4
GAMG:  Solving for p, Initial residual = 0.00041714104, Final residual = 3.4355335e-06, No Iterations 4
GAMG:  Solving for p, Initial residual = 9.9195075e-05, Final residual = 7.1633425e-07, No Iterations 4
GAMG:  Solving for p, Initial residual = 2.6586948e-05, Final residual = 1.6256129e-07, No Iterations 4
time step continuity errors : sum local = 4.4345232e-08, global = 2.2962293e-09, cumulative = -2.2146846e-08
smoothSolver:  Solving for omega, Initial residual = 0.28389619, Final residual = 0.018814683, No Iterations 3
smoothSolver:  Solving for k, Initial residual = 0.085853379, Final residual = 0.0049766199, No Iterations 3
ExecutionTime = 16.358 s  ClockTime = 17 s

forces forces write:
    Sum of forces
        Total    : (0.031285414 3.9178564 -0.15193475)
        Pressure : (0.030389213 3.9142271 -0.15177893)
        Viscous  : (0.0008962018 0.0036292853 -0.00015581472)
    Sum of moments
        Total    : (-2.4829428 0.08664551 0.42855339)
        Pressure : (-2.481041 0.086258049 0.42745143)
        Viscous  : (-0.0019018469 0.00038746166 0.0011019642)


Time = 5

smoothSolver:  Solving for Ux, Initial residual = 0.0087027345, Final residual = 0.00016722376, No Iterations 2
smoothSolver:  Solving for Uy, Initial residual = 0.016867046, Final residual = 0.00039745579, No Iterations 2
smoothSolver:  Solving for Uz, Initial residual = 0.022165697, Final residual = 0.00046764995, No Iterations 2
GAMG:  Solving for p, Initial residual = 0.28698253, Final residual = 0.0017089151, No Iterations 4
GAMG:  Solving for p, Initial residual = 0.021128592, Final residual = 0.00010999933, No Iterations 4
GAMG:  Solving for p, Initial residual = 0.0022808122, Final residual = 1.9165836e-05, No Iterations 4
GAMG:  Solving for p, Initial residual = 0.00043484386, Final residual = 3.7642116e-06, No Iterations 4
GAMG:  Solving for p, Initial residual = 0.00010621831, Final residual = 9.0203502e-07, No Iterations 4
GAMG:  Solving for p, Initial residual = 2.8658987e-05, Final residual = 2.2253111e-07, No Iterations 4
time step continuity errors : sum local = 6.6784059e-08, global = 3.5262984e-09, cumulative = -1.8620547e-08
smoothSolver:  Solving for omega, Initial residual = 0.22666542, Final residual = 0.015153882, No Iterations 3
smoothSolver:  Solving for k, Initial residual = 0.065185925, Final residual = 0.0039655726, No Iterations 3
ExecutionTime = 19.522 s  ClockTime = 20 s

forces forces write:
    Sum of forces
        Total    : (-0.022569739 3.5348661 -0.16240462)
        Pressure : (-0.023603047 3.5319 -0.16238304)
        Viscous  : (0.0010333078 0.0029661562 -2.1571688e-05)
    Sum of moments
        Total    : (-2.2437111 0.052990098 0.38696642)
        Pressure : (-2.2422079 0.052559873 0.38585082)
        Viscous  : (-0.0015032456 0.00043022518 0.0011155957)


Time = 6

smoothSolver:  Solving for Ux, Initial residual = 0.0060790479, Final residual = 0.00011860862, No Iterations 2
smoothSolver:  Solving for Uy, Initial residual = 0.012460658, Final residual = 0.00027858858, No Iterations 2
smoothSolver:  Solving for Uz, Initial residual = 0.019467305, Final residual = 0.00042059813, No Iterations 2
GAMG:  Solving for p, Initial residual = 0.21555944, Final residual = 0.0010897549, No Iterations 4
GAMG:  Solving for p, Initial residual = 0.016030946, Final residual = 0.00015624984, No Iterations 3
GAMG:  Solving for p, Initial residual = 0.0019484156, Final residual = 1.5914797e-05, No Iterations 4
GAMG:  Solving for p, Initial residual = 0.00038714701, Final residual = 2.9836978e-06, No Iterations 4
GAMG:  Solving for p, Initial residual = 9.4893665e-05, Final residual = 7.5637013e-07, No Iterations 4
GAMG:  Solving for p, Initial residual = 2.636217e-05, Final residual = 1.8519454e-07, No Iterations 4
time step continuity errors : sum local = 5.2622703e-08, global = 2.6053955e-09, cumulative = -1.6015152e-08
smoothSolver:  Solving for omega, Initial residual = 0.1873061, Final residual = 0.012585326, No Iterations 3
smoothSolver:  Solving for k, Initial residual = 0.052554494, Final residual = 0.0032745018, No Iterations 3
ExecutionTime = 23.919 s  ClockTime = 24 s

forces forces write:
    Sum of forces
        Total    : (-0.032840785 3.3698428 -0.15940594)
        Pressure : (-0.034030632 3.367311 -0.15947658)
        Viscous  : (0.0011898473 0.0025318127 7.0640272e-05)
    Sum of moments
        Total    : (-2.1419255 0.043407262 0.39895869)
        Pressure : (-2.1406832 0.042903649 0.3978263)
        Viscous  : (-0.001242389 0.00050361239 0.0011323898)


Time = 7

smoothSolver:  Solving for Ux, Initial residual = 0.007214513, Final residual = 0.00017312473, No Iterations 2
smoothSolver:  Solving for Uy, Initial residual = 0.016642183, Final residual = 0.00044927893, No Iterations 2
smoothSolver:  Solving for Uz, Initial residual = 0.021099327, Final residual = 0.00051996906, No Iterations 2
GAMG:  Solving for p, Initial residual = 0.18563249, Final residual = 0.0017016622, No Iterations 3
GAMG:  Solving for p, Initial residual = 0.01382017, Final residual = 8.1176347e-05, No Iterations 4
GAMG:  Solving for p, Initial residual = 0.0015092114, Final residual = 1.1057465e-05, No Iterations 4
GAMG:  Solving for p, Initial residual = 0.00028702481, Final residual = 1.8916734e-06, No Iterations 4
GAMG:  Solving for p, Initial residual = 6.9614664e-05, Final residual = 4.1249417e-07, No Iterations 4
GAMG:  Solving for p, Initial residual = 1.9066377e-05, Final residual = 1.8544697e-07, No Iterations 3
time step continuity errors : sum local = 4.6893556e-08, global = -2.9563521e-09, cumulative = -1.8971504e-08
smoothSolver:  Solving for omega, Initial residual = 0.15867767, Final residual = 0.010694946, No Iterations 3
smoothSolver:  Solving for k, Initial residual = 0.044072268, Final residual = 0.0027789225, No Iterations 3
ExecutionTime = 28.263 s  ClockTime = 29 s

forces forces write:
    Sum of forces
        Total    : (0.0081859107 3.4571621 -0.14353796)
        Pressure : (0.0068148319 3.4547889 -0.14366076)
        Viscous  : (0.0013710787 0.00237315 0.00012280716)
    Sum of moments
        Total    : (-2.1985602 0.063816125 0.45343859)
        Pressure : (-2.1974172 0.063211143 0.45226536)
        Viscous  : (-0.0011430434 0.00060498224 0.0011732347)


Time = 8

smoothSolver:  Solving for Ux, Initial residual = 0.0060340506, Final residual = 0.0001361909, No Iterations 2
smoothSolver:  Solving for Uy, Initial residual = 0.011779173, Final residual = 0.00031281703, No Iterations 2
smoothSolver:  Solving for Uz, Initial residual = 0.017473071, Final residual = 0.0004286481, No Iterations 2
GAMG:  Solving for p, Initial residual = 0.18827447, Final residual = 0.00096905641, No Iterations 4
GAMG:  Solving for p, Initial residual = 0.015886663, Final residual = 8.3758644e-05, No Iterations 4
GAMG:  Solving for p, Initial residual = 0.0016546369, Final residual = 1.3701763e-05, No Iterations 4
GAMG:  Solving for p, Initial residual = 0.00032732113, Final residual = 2.4077101e-06, No Iterations 4
GAMG:  Solving for p, Initial residual = 7.8139228e-05, Final residual = 5.1388643e-07, No Iterations 4
GAMG:  Solving for p, Initial residual = 2.151524e-05, Final residual = 1.1998056e-07, No Iterations 4
time step continuity errors : sum local = 2.8845495e-08, global = -1.5824343e-09, cumulative = -2.0553938e-08
smoothSolver:  Solving for omega, Initial residual = 0.13701233, Final residual = 0.0092547404, No Iterations 3
smoothSolver:  Solving for k, Initial residual = 0.037989552, Final residual = 0.0024094733, No Iterations 3
ExecutionTime = 31.072 s  ClockTime = 31 s

forces forces write:
    Sum of forces
        Total    : (0.064495447 3.6492264 -0.1257125)
        Pressure : (0.062951562 3.6468341 -0.12586333)
        Viscous  : (0.0015438848 0.0023923517 0.00015082666)
    Sum of moments
        Total    : (-2.3200577 0.0944918 0.50567751)
        Pressure : (-2.3189069 0.093784712 0.50443613)
        Viscous  : (-0.001150757 0.00070708829 0.0012413754)


Time = 9

smoothSolver:  Solving for Ux, Initial residual = 0.0043210653, Final residual = 8.316192e-05, No Iterations 2
smoothSolver:  Solving for Uy, Initial residual = 0.0066229216, Final residual = 0.00015974542, No Iterations 2
smoothSolver:  Solving for Uz, Initial residual = 0.013278418, Final residual = 0.00030729745, No Iterations 2
GAMG:  Solving for p, Initial residual = 0.16135602, Final residual = 0.00082740212, No Iterations 4
GAMG:  Solving for p, Initial residual = 0.014021418, Final residual = 6.3254662e-05, No Iterations 4
GAMG:  Solving for p, Initial residual = 0.0015707571, Final residual = 1.0534541e-05, No Iterations 4
GAMG:  Solving for p, Initial residual = 0.00031721293, Final residual = 2.0462882e-06, No Iterations 4
GAMG:  Solving for p, Initial residual = 7.6823314e-05, Final residual = 4.6167397e-07, No Iterations 4
GAMG:  Solving for p, Initial residual = 2.1038351e-05, Final residual = 2.066181e-07, No Iterations 3
time step continuity errors : sum local = 4.8192059e-08, global = -2.9401292e-09, cumulative = -2.3494067e-08
smoothSolver:  Solving for omega, Initial residual = 0.12007456, Final residual = 0.0081241473, No Iterations 3
smoothSolver:  Solving for k, Initial residual = 0.033408139, Final residual = 0.0021243901, No Iterations 3
ExecutionTime = 34.057 s  ClockTime = 34 s

forces forces write:
    Sum of forces
        Total    : (0.092742858 3.7830692 -0.11830356)
        Pressure : (0.091074633 3.7805807 -0.11847285)
        Viscous  : (0.0016682253 0.0024884317 0.0001692842)
    Sum of moments
        Total    : (-2.4037535 0.1111599 0.51756979)
        Pressure : (-2.4025447 0.11037768 0.5162411)
        Viscous  : (-0.0012087778 0.00078221521 0.0013286876)


Time = 10

smoothSolver:  Solving for Ux, Initial residual = 0.0048162587, Final residual = 0.00010691073, No Iterations 2
smoothSolver:  Solving for Uy, Initial residual = 0.0088528092, Final residual = 0.00024972866, No Iterations 2
smoothSolver:  Solving for Uz, Initial residual = 0.013189483, Final residual = 0.00032159428, No Iterations 2
GAMG:  Solving for p, Initial residual = 0.14248237, Final residual = 0.0013188688, No Iterations 3
GAMG:  Solving for p, Initial residual = 0.010970809, Final residual = 0.00010392133, No Iterations 3
GAMG:  Solving for p, Initial residual = 0.0012712298, Final residual = 1.0464496e-05, No Iterations 4
GAMG:  Solving for p, Initial residual = 0.00024344657, Final residual = 1.6666083e-06, No Iterations 4
GAMG:  Solving for p, Initial residual = 5.7757715e-05, Final residual = 3.2915229e-07, No Iterations 4
GAMG:  Solving for p, Initial residual = 1.5526623e-05, Final residual = 1.4722208e-07, No Iterations 3
time step continuity errors : sum local = 3.4563895e-08, global = 2.1270819e-09, cumulative = -2.1366986e-08
smoothSolver:  Solving for omega, Initial residual = 0.1064711, Final residual = 0.0072135084, No Iterations 3
smoothSolver:  Solving for k, Initial residual = 0.029834487, Final residual = 0.0018989616, No Iterations 3
ExecutionTime = 36.668 s  ClockTime = 37 s

forces forces write:
    Sum of forces
        Total    : (0.077817997 3.7918096 -0.12457014)
        Pressure : (0.076082082 3.7892166 -0.12475638)
        Viscous  : (0.0017359151 0.0025930546 0.00018623968)
    Sum of moments
        Total    : (-2.4080747 0.10461793 0.48613021)
        Pressure : (-2.4067984 0.1037967 0.48471313)
        Viscous  : (-0.0012763515 0.00082122724 0.0014170838)


Time = 11

smoothSolver:  Solving for Ux, Initial residual = 0.0043845448, Final residual = 0.00010106416, No Iterations 2
smoothSolver:  Solving for Uy, Initial residual = 0.0081976239, Final residual = 0.00022653239, No Iterations 2
smoothSolver:  Solving for Uz, Initial residual = 0.012580127, Final residual = 0.00031210154, No Iterations 2
GAMG:  Solving for p, Initial residual = 0.14195855, Final residual = 0.00062095776, No Iterations 4
GAMG:  Solving for p, Initial residual = 0.010437933, Final residual = 5.1684452e-05, No Iterations 4
GAMG:  Solving for p, Initial residual = 0.0011735118, Final residual = 8.5101649e-06, No Iterations 4
GAMG:  Solving for p, Initial residual = 0.00022122653, Final residual = 1.450917e-06, No Iterations 4
GAMG:  Solving for p, Initial residual = 5.0847412e-05, Final residual = 3.0593399e-07, No Iterations 4
GAMG:  Solving for p, Initial residual = 1.3154008e-05, Final residual = 1.2940739e-07, No Iterations 3
time step continuity errors : sum local = 3.1805644e-08, global = 2.032591e-09, cumulative = -1.9334395e-08
smoothSolver:  Solving for omega, Initial residual = 0.095320617, Final residual = 0.0064653668, No Iterations 3
smoothSolver:  Solving for k, Initial residual = 0.026969241, Final residual = 0.0017166462, No Iterations 3
ExecutionTime = 39.608 s  ClockTime = 40 s

forces forces write:
    Sum of forces
        Total    : (0.039075672 3.7154394 -0.13760782)
        Pressure : (0.037297257 3.7127618 -0.1378168)
        Viscous  : (0.0017784144 0.0026776542 0.00020898052)
    Sum of moments
        Total    : (-2.3593965 0.084483695 0.44190788)
        Pressure : (-2.3580631 0.08364318 0.44041495)
        Viscous  : (-0.0013334574 0.00084051436 0.0014929301)


Time = 12

smoothSolver:  Solving for Ux, Initial residual = 0.003419904, Final residual = 7.711863e-05, No Iterations 2
smoothSolver:  Solving for Uy, Initial residual = 0.0054420416, Final residual = 0.00012893645, No Iterations 2
smoothSolver:  Solving for Uz, Initial residual = 0.011568375, Final residual = 0.00028464071, No Iterations 2
GAMG:  Solving for p, Initial residual = 0.12501682, Final residual = 0.00058511719, No Iterations 4
GAMG:  Solving for p, Initial residual = 0.009822978, Final residual = 9.640471e-05, No Iterations 3
GAMG:  Solving for p, Initial residual = 0.0011565023, Final residual = 6.1398932e-06, No Iterations 5
GAMG:  Solving for p, Initial residual = 0.00021545275, Final residual = 1.3040538e-06, No Iterations 4
GAMG:  Solving for p, Initial residual = 4.8654148e-05, Final residual = 3.0585142e-07, No Iterations 4
GAMG:  Solving for p, Initial residual = 1.2609306e-05, Final residual = 6.622553e-08, No Iterations 4
time step continuity errors : sum local = 1.6343575e-08, global = 8.9281763e-10, cumulative = -1.8441577e-08
smoothSolver:  Solving for omega, Initial residual = 0.086024205, Final residual = 0.0058404997, No Iterations 3
smoothSolver:  Solving for k, Initial residual = 0.024621837, Final residual = 0.0015664471, No Iterations 3
ExecutionTime = 42.62 s  ClockTime = 43 s

forces forces write:
    Sum of forces
        Total    : (0.0092692551 3.6363241 -0.14681765)
        Pressure : (0.007436039 3.6335884 -0.14705777)
        Viscous  : (0.0018332161 0.0027357142 0.00024012672)
    Sum of moments
        Total    : (-2.3101758 0.068040089 0.42070453)
        Pressure : (-2.3088029 0.067177682 0.41915419)
        Viscous  : (-0.0013729778 0.00086240661 0.001550334)


Time = 13

smoothSolver:  Solving for Ux, Initial residual = 0.0034654065, Final residual = 8.1154077e-05, No Iterations 2
smoothSolver:  Solving for Uy, Initial residual = 0.0058975477, Final residual = 0.00015719968, No Iterations 2
smoothSolver:  Solving for Uz, Initial residual = 0.011738, Final residual = 0.00030052538, No Iterations 2
GAMG:  Solving for p, Initial residual = 0.10613116, Final residual = 0.00099534817, No Iterations 3
GAMG:  Solving for p, Initial residual = 0.0081503202, Final residual = 3.4871346e-05, No Iterations 4
GAMG:  Solving for p, Initial residual = 0.00090576367, Final residual = 4.2357036e-06, No Iterations 4
GAMG:  Solving for p, Initial residual = 0.00018186912, Final residual = 1.6612363e-06, No Iterations 3
GAMG:  Solving for p, Initial residual = 4.2321364e-05, Final residual = 2.852584e-07, No Iterations 4
GAMG:  Solving for p, Initial residual = 1.1456969e-05, Final residual = 6.3570419e-08, No Iterations 4
time step continuity errors : sum local = 1.511177e-08, global = -2.1415452e-10, cumulative = -1.8655731e-08
smoothSolver:  Solving for omega, Initial residual = 0.078178412, Final residual = 0.0053123511, No Iterations 3
smoothSolver:  Solving for k, Initial residual = 0.022662374, Final residual = 0.0014406824, No Iterations 3
ExecutionTime = 45.562 s  ClockTime = 46 s

forces forces write:
    Sum of forces
        Total    : (0.0073580656 3.60815 -0.14666591)
        Pressure : (0.0054409435 3.6053828 -0.14694341)
        Viscous  : (0.0019171222 0.0027671625 0.00027750191)
    Sum of moments
        Total    : (-2.293995 0.065842424 0.43442533)
        Pressure : (-2.2926025 0.064943767 0.43283657)
        Viscous  : (-0.0013924296 0.00089865678 0.0015887599)


Time = 14

smoothSolver:  Solving for Ux, Initial residual = 0.0034670516, Final residual = 8.2554922e-05, No Iterations 2
smoothSolver:  Solving for Uy, Initial residual = 0.005726907, Final residual = 0.00015918228, No Iterations 2
smoothSolver:  Solving for Uz, Initial residual = 0.011320662, Final residual = 0.00029643077, No Iterations 2
GAMG:  Solving for p, Initial residual = 0.10281779, Final residual = 0.00099715961, No Iterations 3
GAMG:  Solving for p, Initial residual = 0.0075761576, Final residual = 5.5952417e-05, No Iterations 4
GAMG:  Solving for p, Initial residual = 0.00083915135, Final residual = 7.8742217e-06, No Iterations 4
GAMG:  Solving for p, Initial residual = 0.0001664051, Final residual = 1.2008652e-06, No Iterations 4
GAMG:  Solving for p, Initial residual = 3.9254419e-05, Final residual = 2.628505e-07, No Iterations 4
GAMG:  Solving for p, Initial residual = 1.1136302e-05, Final residual = 6.062589e-08, No Iterations 4
time step continuity errors : sum local = 1.3956542e-08, global = -7.5265248e-10, cumulative = -1.9408384e-08
smoothSolver:  Solving for omega, Initial residual = 0.07147672, Final residual = 0.0048607304, No Iterations 3
smoothSolver:  Solving for k, Initial residual = 0.021003557, Final residual = 0.0013339681, No Iterations 3
ExecutionTime = 48.726 s  ClockTime = 49 s

forces forces write:
    Sum of forces
        Total    : (0.028006902 3.6318179 -0.13925086)
        Pressure : (0.025988339 3.6290446 -0.13956319)
        Viscous  : (0.0020185625 0.0027733004 0.00031232545)
    Sum of moments
        Total    : (-2.3105123 0.075673634 0.466545)
        Pressure : (-2.3091205 0.074726647 0.46493597)
        Viscous  : (-0.0013918076 0.0009469863 0.0016090239)


Time = 15

smoothSolver:  Solving for Ux, Initial residual = 0.0030046332, Final residual = 6.9188587e-05, No Iterations 2
smoothSolver:  Solving for Uy, Initial residual = 0.0041501107, Final residual = 0.00010780808, No Iterations 2
smoothSolver:  Solving for Uz, Initial residual = 0.010058673, Final residual = 0.00026199778, No Iterations 2
GAMG:  Solving for p, Initial residual = 0.095715394, Final residual = 0.00040193541, No Iterations 4
GAMG:  Solving for p, Initial residual = 0.0073557133, Final residual = 6.9221668e-05, No Iterations 3
GAMG:  Solving for p, Initial residual = 0.00084227487, Final residual = 4.3147349e-06, No Iterations 5
GAMG:  Solving for p, Initial residual = 0.00016828355, Final residual = 8.4765748e-07, No Iterations 4
GAMG:  Solving for p, Initial residual = 3.9483817e-05, Final residual = 2.0913362e-07, No Iterations 4
GAMG:  Solving for p, Initial residual = 1.1206993e-05, Final residual = 9.3269179e-08, No Iterations 3
time step continuity errors : sum local = 2.1116483e-08, global = -1.4090508e-09, cumulative = -2.0817435e-08
smoothSolver:  Solving for omega, Initial residual = 0.065691683, Final residual = 0.0044705021, No Iterations 3
smoothSolver:  Solving for k, Initial residual = 0.019581224, Final residual = 0.0012423427, No Iterations 3
ExecutionTime = 51.525 s  ClockTime = 52 s

forces forces write:
    Sum of forces
        Total    : (0.051718159 3.6750807 -0.1312334)
        Pressure : (0.049606705 3.6723216 -0.13157032)
        Viscous  : (0.002111454 0.0027590489 0.00033691147)
    Sum of moments
        Total    : (-2.3384937 0.087705074 0.49051623)
        Pressure : (-2.3371187 0.0867102 0.48890122)
        Viscous  : (-0.0013749814 0.00099487443 0.0016150159)


Time = 16

smoothSolver:  Solving for Ux, Initial residual = 0.0027901919, Final residual = 6.3817648e-05, No Iterations 2
smoothSolver:  Solving for Uy, Initial residual = 0.0040122216, Final residual = 0.00010812363, No Iterations 2
smoothSolver:  Solving for Uz, Initial residual = 0.0093416258, Final residual = 0.000243337, No Iterations 2
GAMG:  Solving for p, Initial residual = 0.084234026, Final residual = 0.00076387632, No Iterations 3
GAMG:  Solving for p, Initial residual = 0.0065422742, Final residual = 2.7505194e-05, No Iterations 4
GAMG:  Solving for p, Initial residual = 0.00075177988, Final residual = 3.9143332e-06, No Iterations 4
GAMG:  Solving for p, Initial residual = 0.00015461676, Final residual = 1.5246382e-06, No Iterations 3
GAMG:  Solving for p, Initial residual = 3.670254e-05, Final residual = 2.7712945e-07, No Iterations 4
GAMG:  Solving for p, Initial residual = 9.9773166e-06, Final residual = 5.6121681e-08, No Iterations 4
time step continuity errors : sum local = 1.2671557e-08, global = -6.3144108e-10, cumulative = -2.1448876e-08
smoothSolver:  Solving for omega, Initial residual = 0.060664072, Final residual = 0.0041310652, No Iterations 3
smoothSolver:  Solving for k, Initial residual = 0.018349977, Final residual = 0.0011629359, No Iterations 3
ExecutionTime = 54.299 s  ClockTime = 55 s

forces forces write:
    Sum of forces
        Total    : (0.06205099 3.7050733 -0.12802864)
        Pressure : (0.05986832 3.7023419 -0.12838037)
        Viscous  : (0.00218267 0.0027313898 0.00035173728)
    Sum of moments
        Total    : (-2.3571531 0.093286956 0.49110655)
        Pressure : (-2.3558053 0.092251173 0.48949318)
        Viscous  : (-0.0013477796 0.0010357839 0.0016133767)


Time = 17

smoothSolver:  Solving for Ux, Initial residual = 0.0027367282, Final residual = 6.4124544e-05, No Iterations 2
smoothSolver:  Solving for Uy, Initial residual = 0.0040836606, Final residual = 0.00011475338, No Iterations 2
smoothSolver:  Solving for Uz, Initial residual = 0.0091048561, Final residual = 0.00024156766, No Iterations 2
GAMG:  Solving for p, Initial residual = 0.079271096, Final residual = 0.00069750151, No Iterations 3
GAMG:  Solving for p, Initial residual = 0.0057600645, Final residual = 2.7455328e-05, No Iterations 4
GAMG:  Solving for p, Initial residual = 0.00065328545, Final residual = 4.4686554e-06, No Iterations 4
GAMG:  Solving for p, Initial residual = 0.00013405989, Final residual = 8.405785e-07, No Iterations 4
GAMG:  Solving for p, Initial residual = 3.0797258e-05, Final residual = 1.9202375e-07, No Iterations 4
GAMG:  Solving for p, Initial residual = 8.5469662e-06, Final residual = 8.4618987e-08, No Iterations 3
time step continuity errors : sum local = 1.9350228e-08, global = 1.230967e-09, cumulative = -2.0217909e-08
smoothSolver:  Solving for omega, Initial residual = 0.056264666, Final residual = 0.0038337508, No Iterations 3
smoothSolver:  Solving for k, Initial residual = 0.017273678, Final residual = 0.0010934051, No Iterations 3
ExecutionTime = 57.424 s  ClockTime = 58 s

forces forces write:
    Sum of forces
        Total    : (0.056211656 3.7090517 -0.13026362)
        Pressure : (0.053974065 3.7063556 -0.13062315)
        Viscous  : (0.0022375914 0.00269618 0.00035952987)
    Sum of moments
        Total    : (-2.359036 0.090658231 0.47317201)
        Pressure : (-2.3577207 0.089586579 0.47156097)
        Viscous  : (-0.0013153187 0.0010716519 0.0016110361)


Time = 18

smoothSolver:  Solving for Ux, Initial residual = 0.0025419644, Final residual = 6.0970323e-05, No Iterations 2
smoothSolver:  Solving for Uy, Initial residual = 0.0033269411, Final residual = 8.9613017e-05, No Iterations 2
smoothSolver:  Solving for Uz, Initial residual = 0.0088689482, Final residual = 0.0002389418, No Iterations 2
GAMG:  Solving for p, Initial residual = 0.074750744, Final residual = 0.00070052901, No Iterations 3
GAMG:  Solving for p, Initial residual = 0.0054245201, Final residual = 3.6670016e-05, No Iterations 4
GAMG:  Solving for p, Initial residual = 0.00061205423, Final residual = 4.8942436e-06, No Iterations 4
GAMG:  Solving for p, Initial residual = 0.00011773788, Final residual = 7.5432679e-07, No Iterations 4
GAMG:  Solving for p, Initial residual = 2.6993732e-05, Final residual = 1.5208222e-07, No Iterations 4
GAMG:  Solving for p, Initial residual = 7.191345e-06, Final residual = 6.7829358e-08, No Iterations 3
time step continuity errors : sum local = 1.5670306e-08, global = 9.3537086e-10, cumulative = -1.9282538e-08
smoothSolver:  Solving for omega, Initial residual = 0.052386058, Final residual = 0.0035713009, No Iterations 3
smoothSolver:  Solving for k, Initial residual = 0.01632528, Final residual = 0.0010320462, No Iterations 3
ExecutionTime = 60.802 s  ClockTime = 61 s

forces forces write:
    Sum of forces
        Total    : (0.043132873 3.694868 -0.13462728)
        Pressure : (0.040834783 3.6922138 -0.13499478)
        Viscous  : (0.0022980897 0.0026542646 0.00036750239)
    Sum of moments
        Total    : (-2.3499532 0.08411893 0.45366295)
        Pressure : (-2.3486746 0.083004692 0.45204874)
        Viscous  : (-0.0012785785 0.0011142381 0.0016142032)


Time = 19

smoothSolver:  Solving for Ux, Initial residual = 0.0024190086, Final residual = 5.8561806e-05, No Iterations 2
smoothSolver:  Solving for Uy, Initial residual = 0.0028684059, Final residual = 7.5004811e-05, No Iterations 2
smoothSolver:  Solving for Uz, Initial residual = 0.0087248427, Final residual = 0.00023700683, No Iterations 2
GAMG:  Solving for p, Initial residual = 0.067265093, Final residual = 0.00058495463, No Iterations 3
GAMG:  Solving for p, Initial residual = 0.0049019473, Final residual = 2.1922031e-05, No Iterations 4
GAMG:  Solving for p, Initial residual = 0.00054520888, Final residual = 2.8822522e-06, No Iterations 4
GAMG:  Solving for p, Initial residual = 0.00010872135, Final residual = 1.0512856e-06, No Iterations 3
GAMG:  Solving for p, Initial residual = 2.5496246e-05, Final residual = 1.6881377e-07, No Iterations 4
GAMG:  Solving for p, Initial residual = 6.7668682e-06, Final residual = 3.2958286e-08, No Iterations 4
time step continuity errors : sum local = 7.561806e-09, global = 3.6847824e-10, cumulative = -1.891406e-08
smoothSolver:  Solving for omega, Initial residual = 0.048942534, Final residual = 0.0033380187, No Iterations 3
smoothSolver:  Solving for k, Initial residual = 0.015483447, Final residual = 0.00097753017, No Iterations 3
ExecutionTime = 63.341 s  ClockTime = 64 s

forces forces write:
    Sum of forces
        Total    : (0.033970027 3.6787296 -0.13728927)
        Pressure : (0.031587703 3.676123 -0.13767225)
        Viscous  : (0.0023823232 0.0026065197 0.0003829801)
    Sum of moments
        Total    : (-2.3404665 0.079266262 0.44669007)
        Pressure : (-2.3392287 0.078093405 0.44506436)
        Viscous  : (-0.0012378078 0.0011728572 0.0016257019)


Time = 20

smoothSolver:  Solving for Ux, Initial residual = 0.0023638215, Final residual = 5.7615007e-05, No Iterations 2
smoothSolver:  Solving for Uy, Initial residual = 0.0029013292, Final residual = 7.9886601e-05, No Iterations 2
smoothSolver:  Solving for Uz, Initial residual = 0.0085521067, Final residual = 0.00023558279, No Iterations 2
GAMG:  Solving for p, Initial residual = 0.061575277, Final residual = 0.00052455022, No Iterations 3
GAMG:  Solving for p, Initial residual = 0.0043396669, Final residual = 4.2561809e-05, No Iterations 3
GAMG:  Solving for p, Initial residual = 0.00051428821, Final residual = 3.7448203e-06, No Iterations 4
GAMG:  Solving for p, Initial residual = 0.00010430827, Final residual = 5.9241974e-07, No Iterations 4
GAMG:  Solving for p, Initial residual = 2.415972e-05, Final residual = 1.2643298e-07, No Iterations 4
GAMG:  Solving for p, Initial residual = 6.5302759e-06, Final residual = 5.6979743e-08, No Iterations 3
time step continuity errors : sum local = 1.2880736e-08, global = -7.8555896e-10, cumulative = -1.9699619e-08
smoothSolver:  Solving for omega, Initial residual = 0.045865482, Final residual = 0.0031293356, No Iterations 3
smoothSolver:  Solving for k, Initial residual = 0.014731803, Final residual = 0.00092879786, No Iterations 3
ExecutionTime = 65.793 s  ClockTime = 66 s

forces forces write:
    Sum of forces
        Total    : (0.033912467 3.6723224 -0.13668177)
        Pressure : (0.031417983 3.6697684 -0.13709054)
        Viscous  : (0.0024944835 0.0025539576 0.00040876267)
    Sum of moments
        Total    : (-2.3376402 0.078827693 0.45417838)
        Pressure : (-2.3364479 0.077579207 0.45253232)
        Viscous  : (-0.0011922631 0.0012484857 0.0016460627)


Time = 21

smoothSolver:  Solving for Ux, Initial residual = 0.0022582559, Final residual = 5.5477333e-05, No Iterations 2
smoothSolver:  Solving for Uy, Initial residual = 0.0026893287, Final residual = 7.3478977e-05, No Iterations 2
smoothSolver:  Solving for Uz, Initial residual = 0.0081519883, Final residual = 0.00022717487, No Iterations 2
GAMG:  Solving for p, Initial residual = 0.058041543, Final residual = 0.00048534843, No Iterations 3
GAMG:  Solving for p, Initial residual = 0.0039339397, Final residual = 2.5417369e-05, No Iterations 4
GAMG:  Solving for p, Initial residual = 0.00045723315, Final residual = 3.4782427e-06, No Iterations 4
GAMG:  Solving for p, Initial residual = 9.4498887e-05, Final residual = 5.8721546e-07, No Iterations 4
GAMG:  Solving for p, Initial residual = 2.234901e-05, Final residual = 1.2216756e-07, No Iterations 4
GAMG:  Solving for p, Initial residual = 6.1830242e-06, Final residual = 5.7214699e-08, No Iterations 3
time step continuity errors : sum local = 1.2794926e-08, global = -7.5440121e-10, cumulative = -2.045402e-08
smoothSolver:  Solving for omega, Initial residual = 0.043099585, Final residual = 0.0029415172, No Iterations 3
smoothSolver:  Solving for k, Initial residual = 0.014057135, Final residual = 0.00088500212, No Iterations 3
ExecutionTime = 68.273 s  ClockTime = 69 s

forces forces write:
    Sum of forces
        Total    : (0.040575942 3.6774198 -0.13375471)
        Pressure : (0.037941314 3.6749209 -0.1342016)
        Viscous  : (0.0026346274 0.0024989636 0.00044689527)
    Sum of moments
        Total    : (-2.3418265 0.08173836 0.46758901)
        Pressure : (-2.340684 0.080394768 0.46591502)
        Viscous  : (-0.0011424799 0.0013435917 0.0016739905)


Time = 22

smoothSolver:  Solving for Ux, Initial residual = 0.0021385137, Final residual = 5.3225715e-05, No Iterations 2
smoothSolver:  Solving for Uy, Initial residual = 0.0024358111, Final residual = 6.4784932e-05, No Iterations 2
smoothSolver:  Solving for Uz, Initial residual = 0.007778185, Final residual = 0.00021888881, No Iterations 2
GAMG:  Solving for p, Initial residual = 0.053440743, Final residual = 0.00042088729, No Iterations 3
GAMG:  Solving for p, Initial residual = 0.0035693778, Final residual = 1.9739218e-05, No Iterations 4
GAMG:  Solving for p, Initial residual = 0.00041378189, Final residual = 2.7091909e-06, No Iterations 4
GAMG:  Solving for p, Initial residual = 8.6309339e-05, Final residual = 4.7756371e-07, No Iterations 4
GAMG:  Solving for p, Initial residual = 2.0677364e-05, Final residual = 2.0204356e-07, No Iterations 3
GAMG:  Solving for p, Initial residual = 5.8307056e-06, Final residual = 3.6312864e-08, No Iterations 4
time step continuity errors : sum local = 8.0869969e-09, global = -3.6107874e-10, cumulative = -2.0815099e-08
smoothSolver:  Solving for omega, Initial residual = 0.040599309, Final residual = 0.0027715928, No Iterations 3
smoothSolver:  Solving for k, Initial residual = 0.013448341, Final residual = 0.00084546479, No Iterations 3
ExecutionTime = 70.713 s  ClockTime = 71 s

forces forces write:
    Sum of forces
        Total    : (0.047954172 3.6880204 -0.13075014)
        Pressure : (0.045159147 3.6855782 -0.13124629)
        Viscous  : (0.0027950253 0.0024421954 0.00049614476)
    Sum of moments
        Total    : (-2.3487557 0.08512811 0.47645839)
        Pressure : (-2.3476667 0.083674409 0.47474987)
        Viscous  : (-0.0010890085 0.0014537007 0.0017085237)


Time = 23

smoothSolver:  Solving for Ux, Initial residual = 0.0020724556, Final residual = 5.2347658e-05, No Iterations 2
smoothSolver:  Solving for Uy, Initial residual = 0.0023667269, Final residual = 6.4143746e-05, No Iterations 2
smoothSolver:  Solving for Uz, Initial residual = 0.0076219734, Final residual = 0.00021673796, No Iterations 2
GAMG:  Solving for p, Initial residual = 0.049204895, Final residual = 0.00035459355, No Iterations 3
GAMG:  Solving for p, Initial residual = 0.0032980842, Final residual = 3.0595195e-05, No Iterations 3
GAMG:  Solving for p, Initial residual = 0.00039428417, Final residual = 2.2367418e-06, No Iterations 4
GAMG:  Solving for p, Initial residual = 8.1963024e-05, Final residual = 7.186361e-07, No Iterations 3
GAMG:  Solving for p, Initial residual = 1.969676e-05, Final residual = 1.1978533e-07, No Iterations 4
GAMG:  Solving for p, Initial residual = 5.4370081e-06, Final residual = 5.0491063e-08, No Iterations 3
time step continuity errors : sum local = 1.1264103e-08, global = -5.5330593e-10, cumulative = -2.1368404e-08
smoothSolver:  Solving for omega, Initial residual = 0.038330695, Final residual = 0.0026172757, No Iterations 3
smoothSolver:  Solving for k, Initial residual = 0.012896956, Final residual = 0.00080963264, No Iterations 3
ExecutionTime = 73.203 s  ClockTime = 74 s

forces forces write:
    Sum of forces
        Total    : (0.051545715 3.6965999 -0.12920582)
        Pressure : (0.048572496 3.6942192 -0.1297602)
        Viscous  : (0.0029732192 0.0023807399 0.00055438605)
    Sum of moments
        Total    : (-2.3537886 0.086805096 0.47611909)
        Pressure : (-2.3527577 0.085227749 0.47436949)
        Viscous  : (-0.0010309041 0.0015773464 0.0017495905)


Time = 24

smoothSolver:  Solving for Ux, Initial residual = 0.0020310915, Final residual = 5.1794576e-05, No Iterations 2
smoothSolver:  Solving for Uy, Initial residual = 0.0021287271, Final residual = 5.8325316e-05, No Iterations 2
smoothSolver:  Solving for Uz, Initial residual = 0.0075319138, Final residual = 0.00021671906, No Iterations 2
GAMG:  Solving for p, Initial residual = 0.046194605, Final residual = 0.00034276065, No Iterations 3
GAMG:  Solving for p, Initial residual = 0.0031098854, Final residual = 2.5122167e-05, No Iterations 3
GAMG:  Solving for p, Initial residual = 0.00037734754, Final residual = 2.0496257e-06, No Iterations 4
GAMG:  Solving for p, Initial residual = 7.9103843e-05, Final residual = 7.6989317e-07, No Iterations 3
GAMG:  Solving for p, Initial residual = 1.900856e-05, Final residual = 1.239259e-07, No Iterations 4
GAMG:  Solving for p, Initial residual = 5.170357e-06, Final residual = 5.0407507e-08, No Iterations 3
time step continuity errors : sum local = 1.1287964e-08, global = 6.7080847e-10, cumulative = -2.0697596e-08
smoothSolver:  Solving for omega, Initial residual = 0.036264405, Final residual = 0.0024766171, No Iterations 3
smoothSolver:  Solving for k, Initial residual = 0.012395549, Final residual = 0.00077700973, No Iterations 3
ExecutionTime = 75.603 s  ClockTime = 76 s

forces forces write:
    Sum of forces
        Total    : (0.050878031 3.6993263 -0.12918768)
        Pressure : (0.047704003 3.6970205 -0.12980632)
        Viscous  : (0.0031740281 0.0023058533 0.00061864175)
    Sum of moments
        Total    : (-2.3549944 0.086509898 0.46952107)
        Pressure : (-2.3540304 0.084793685 0.46772324)
        Viscous  : (-0.00096403785 0.0017162131 0.0017978272)


Time = 25

smoothSolver:  Solving for Ux, Initial residual = 0.0019859229, Final residual = 5.0858848e-05, No Iterations 2
smoothSolver:  Solving for Uy, Initial residual = 0.0018505707, Final residual = 4.9625141e-05, No Iterations 2
smoothSolver:  Solving for Uz, Initial residual = 0.0073925834, Final residual = 0.00021452313, No Iterations 2
GAMG:  Solving for p, Initial residual = 0.043182271, Final residual = 0.00030380319, No Iterations 3
GAMG:  Solving for p, Initial residual = 0.0028266633, Final residual = 2.2177567e-05, No Iterations 3
GAMG:  Solving for p, Initial residual = 0.00034876296, Final residual = 1.7451534e-06, No Iterations 4
GAMG:  Solving for p, Initial residual = 7.271432e-05, Final residual = 6.8436371e-07, No Iterations 3
GAMG:  Solving for p, Initial residual = 1.7289605e-05, Final residual = 1.1640735e-07, No Iterations 4
GAMG:  Solving for p, Initial residual = 4.6852868e-06, Final residual = 2.3824946e-08, No Iterations 4
time step continuity errors : sum local = 5.3341556e-09, global = 2.6470406e-10, cumulative = -2.0432892e-08
smoothSolver:  Solving for omega, Initial residual = 0.034375419, Final residual = 0.0023479393, No Iterations 3
smoothSolver:  Solving for k, Initial residual = 0.011937757, Final residual = 0.00074720194, No Iterations 3
ExecutionTime = 78.003 s  ClockTime = 78 s

forces forces write:
    Sum of forces
        Total    : (0.048451157 3.6971189 -0.12971873)
        Pressure : (0.045047272 3.694912 -0.13040712)
        Viscous  : (0.003403885 0.0022068904 0.00068839427)
    Sum of moments
        Total    : (-2.353427 0.085390592 0.46310464)
        Pressure : (-2.3525437 0.083519878 0.46125166)
        Viscous  : (-0.00088325017 0.0018707137 0.0018529843)


Time = 26

smoothSolver:  Solving for Ux, Initial residual = 0.001929728, Final residual = 4.9668154e-05, No Iterations 2
smoothSolver:  Solving for Uy, Initial residual = 0.0017806354, Final residual = 4.8530014e-05, No Iterations 2
smoothSolver:  Solving for Uz, Initial residual = 0.0072018771, Final residual = 0.0002101342, No Iterations 2
GAMG:  Solving for p, Initial residual = 0.039971399, Final residual = 0.00027197229, No Iterations 3
GAMG:  Solving for p, Initial residual = 0.0025306523, Final residual = 2.1611911e-05, No Iterations 3
GAMG:  Solving for p, Initial residual = 0.0003139142, Final residual = 1.5197994e-06, No Iterations 4
GAMG:  Solving for p, Initial residual = 6.5062719e-05, Final residual = 5.4453573e-07, No Iterations 3
GAMG:  Solving for p, Initial residual = 1.5521635e-05, Final residual = 9.605695e-08, No Iterations 4
GAMG:  Solving for p, Initial residual = 4.2815425e-06, Final residual = 4.2159831e-08, No Iterations 3
time step continuity errors : sum local = 9.4017112e-09, global = -5.4076715e-10, cumulative = -2.0973659e-08
smoothSolver:  Solving for omega, Initial residual = 0.032643605, Final residual = 0.0022299143, No Iterations 3
smoothSolver:  Solving for k, Initial residual = 0.011518821, Final residual = 0.00071989749, No Iterations 3
ExecutionTime = 80.382 s  ClockTime = 81 s

forces forces write:
    Sum of forces
        Total    : (0.04710477 3.6936218 -0.12975625)
        Pressure : (0.043434363 3.691548 -0.13052246)
        Viscous  : (0.0036704072 0.0020737522 0.00076621148)
    Sum of moments
        Total    : (-2.3515149 0.084745385 0.46148139)
        Pressure : (-2.3507319 0.082703057 0.45956729)
        Viscous  : (-0.00078301562 0.0020423275 0.0019141001)


Time = 27

smoothSolver:  Solving for Ux, Initial residual = 0.001870611, Final residual = 4.8490761e-05, No Iterations 2
smoothSolver:  Solving for Uy, Initial residual = 0.0017683953, Final residual = 4.8977263e-05, No Iterations 2
smoothSolver:  Solving for Uz, Initial residual = 0.0069966043, Final residual = 0.00020425543, No Iterations 2
GAMG:  Solving for p, Initial residual = 0.037307586, Final residual = 0.00024672345, No Iterations 3
GAMG:  Solving for p, Initial residual = 0.0023588268, Final residual = 2.3028429e-05, No Iterations 3
GAMG:  Solving for p, Initial residual = 0.00030078226, Final residual = 2.5727211e-06, No Iterations 4
GAMG:  Solving for p, Initial residual = 6.3474308e-05, Final residual = 3.8637988e-07, No Iterations 4
GAMG:  Solving for p, Initial residual = 1.4918452e-05, Final residual = 7.7373809e-08, No Iterations 4
GAMG:  Solving for p, Initial residual = 4.1344871e-06, Final residual = 3.4224516e-08, No Iterations 3
time step continuity errors : sum local = 7.5936774e-09, global = -4.6234223e-10, cumulative = -2.1436001e-08
smoothSolver:  Solving for omega, Initial residual = 0.031050714, Final residual = 0.0021212949, No Iterations 3
smoothSolver:  Solving for k, Initial residual = 0.011134102, Final residual = 0.00069479208, No Iterations 3
ExecutionTime = 82.802 s  ClockTime = 83 s

forces forces write:
    Sum of forces
        Total    : (0.048064174 3.6922547 -0.12886116)
        Pressure : (0.044083699 3.6903533 -0.12971798)
        Viscous  : (0.0039804754 0.0019014642 0.00085682134)
    Sum of moments
        Total    : (-2.3511855 0.085108327 0.46489945)
        Pressure : (-2.3505246 0.082874877 0.46292001)
        Viscous  : (-0.00066089085 0.0022334503 0.0019794428)


Time = 28

smoothSolver:  Solving for Ux, Initial residual = 0.0018173914, Final residual = 4.7698236e-05, No Iterations 2
smoothSolver:  Solving for Uy, Initial residual = 0.0016942036, Final residual = 4.662839e-05, No Iterations 2
smoothSolver:  Solving for Uz, Initial residual = 0.0068273188, Final residual = 0.00019938558, No Iterations 2
GAMG:  Solving for p, Initial residual = 0.034984269, Final residual = 0.00022911256, No Iterations 3
GAMG:  Solving for p, Initial residual = 0.002201595, Final residual = 1.0950709e-05, No Iterations 4
GAMG:  Solving for p, Initial residual = 0.00027144198, Final residual = 1.7252644e-06, No Iterations 4
GAMG:  Solving for p, Initial residual = 5.8072343e-05, Final residual = 3.1296592e-07, No Iterations 4
GAMG:  Solving for p, Initial residual = 1.3695823e-05, Final residual = 7.0688659e-08, No Iterations 4
GAMG:  Solving for p, Initial residual = 3.7582115e-06, Final residual = 3.1494124e-08, No Iterations 3
time step continuity errors : sum local = 6.9646542e-09, global = -4.4069183e-10, cumulative = -2.1876693e-08
smoothSolver:  Solving for omega, Initial residual = 0.029582072, Final residual = 0.0020210465, No Iterations 3
smoothSolver:  Solving for k, Initial residual = 0.010779812, Final residual = 0.00067166101, No Iterations 3
ExecutionTime = 85.342 s  ClockTime = 86 s

forces forces write:
    Sum of forces
        Total    : (0.050681361 3.6941136 -0.12732188)
        Pressure : (0.046359915 3.6924223 -0.12828083)
        Viscous  : (0.0043214462 0.0016913548 0.00095894918)
    Sum of moments
        Total    : (-2.3527953 0.086172646 0.47026886)
        Pressure : (-2.3522775 0.08374 0.46822123)
        Viscous  : (-0.00051782784 0.0024326455 0.0020476353)


Time = 29

smoothSolver:  Solving for Ux, Initial residual = 0.0017818995, Final residual = 4.7314248e-05, No Iterations 2
smoothSolver:  Solving for Uy, Initial residual = 0.0015919893, Final residual = 4.3382722e-05, No Iterations 2
smoothSolver:  Solving for Uz, Initial residual = 0.0067219981, Final residual = 0.00019587448, No Iterations 2
GAMG:  Solving for p, Initial residual = 0.032819156, Final residual = 0.00020734956, No Iterations 3
GAMG:  Solving for p, Initial residual = 0.0020278778, Final residual = 1.8803178e-05, No Iterations 3
GAMG:  Solving for p, Initial residual = 0.00026268586, Final residual = 2.0525228e-06, No Iterations 4
GAMG:  Solving for p, Initial residual = 5.573651e-05, Final residual = 3.380676e-07, No Iterations 4
GAMG:  Solving for p, Initial residual = 1.3217419e-05, Final residual = 7.3834122e-08, No Iterations 4
GAMG:  Solving for p, Initial residual = 3.6487919e-06, Final residual = 3.3038311e-08, No Iterations 3
time step continuity errors : sum local = 7.3027652e-09, global = -4.425557e-10, cumulative = -2.2319249e-08
smoothSolver:  Solving for omega, Initial residual = 0.028223292, Final residual = 0.0019282248, No Iterations 3
smoothSolver:  Solving for k, Initial residual = 0.010452724, Final residual = 0.00065028867, No Iterations 3
ExecutionTime = 87.742 s  ClockTime = 88 s

forces forces write:
    Sum of forces
        Total    : (0.053510148 3.6977834 -0.12574929)
        Pressure : (0.048829535 3.6963384 -0.12681902)
        Viscous  : (0.0046806137 0.0014450447 0.0010697223)
    Sum of moments
        Total    : (-2.3552513 0.087301087 0.47409447)
        Pressure : (-2.3548959 0.084672326 0.47197545)
        Viscous  : (-0.00035544 0.0026287612 0.0021190171)


Time = 30

smoothSolver:  Solving for Ux, Initial residual = 0.0017617221, Final residual = 4.7236237e-05, No Iterations 2
smoothSolver:  Solving for Uy, Initial residual = 0.0014801999, Final residual = 4.0450042e-05, No Iterations 2
smoothSolver:  Solving for Uz, Initial residual = 0.0066230301, Final residual = 0.00019237993, No Iterations 2
GAMG:  Solving for p, Initial residual = 0.030819044, Final residual = 0.00018923005, No Iterations 3
GAMG:  Solving for p, Initial residual = 0.0018622051, Final residual = 1.6992864e-05, No Iterations 3
GAMG:  Solving for p, Initial residual = 0.00024610338, Final residual = 1.38361e-06, No Iterations 4
GAMG:  Solving for p, Initial residual = 5.2701426e-05, Final residual = 4.6707875e-07, No Iterations 3
GAMG:  Solving for p, Initial residual = 1.2848845e-05, Final residual = 8.6172258e-08, No Iterations 4
GAMG:  Solving for p, Initial residual = 3.6091649e-06, Final residual = 2.0594234e-08, No Iterations 4
time step continuity errors : sum local = 4.5542775e-09, global = -7.8144899e-11, cumulative = -2.2397394e-08
smoothSolver:  Solving for omega, Initial residual = 0.026963113, Final residual = 0.0018420856, No Iterations 3
smoothSolver:  Solving for k, Initial residual = 0.010150227, Final residual = 0.00063049721, No Iterations 3
ExecutionTime = 90.222 s  ClockTime = 91 s

forces forces write:
    Sum of forces
        Total    : (0.055502199 3.7008214 -0.12454433)
        Pressure : (0.050462233 3.6996484 -0.12572722)
        Viscous  : (0.0050399659 0.0011729602 0.0011828995)
    Sum of moments
        Total    : (-2.3570474 0.088045546 0.47483537)
        Pressure : (-2.3568646 0.085238353 0.47264282)
        Viscous  : (-0.00018285454 0.0028071934 0.0021925546)


Time = 31

smoothSolver:  Solving for Ux, Initial residual = 0.0017405199, Final residual = 4.6917344e-05, No Iterations 2
smoothSolver:  Solving for Uy, Initial residual = 0.0013737895, Final residual = 3.7260391e-05, No Iterations 2
smoothSolver:  Solving for Uz, Initial residual = 0.0064915336, Final residual = 0.0001876624, No Iterations 2
GAMG:  Solving for p, Initial residual = 0.028960499, Final residual = 0.00017060673, No Iterations 3
GAMG:  Solving for p, Initial residual = 0.0017457328, Final residual = 1.4087349e-05, No Iterations 3
GAMG:  Solving for p, Initial residual = 0.00023334085, Final residual = 2.1374364e-06, No Iterations 3
GAMG:  Solving for p, Initial residual = 5.103034e-05, Final residual = 4.7314294e-07, No Iterations 3
GAMG:  Solving for p, Initial residual = 1.2371554e-05, Final residual = 1.2183427e-07, No Iterations 3
GAMG:  Solving for p, Initial residual = 3.4785512e-06, Final residual = 1.4316423e-08, No Iterations 4
time step continuity errors : sum local = 3.1645875e-09, global = 1.6520815e-10, cumulative = -2.2232186e-08
smoothSolver:  Solving for omega, Initial residual = 0.025791429, Final residual = 0.001761953, No Iterations 3
smoothSolver:  Solving for k, Initial residual = 0.0098698319, Final residual = 0.0006121393, No Iterations 3
ExecutionTime = 92.715 s  ClockTime = 93 s

forces forces write:
    Sum of forces
        Total    : (0.056568845 3.7016173 -0.12371273)
        Pressure : (0.05115293 3.7007437 -0.12501513)
        Viscous  : (0.0054159158 0.00087359887 0.001302393)
    Sum of moments
        Total    : (-2.3573515 0.088392817 0.47335149)
        Pressure : (-2.3573513 0.08541161 0.471081)
        Viscous  : (-1.9766809e-07 0.0029812064 0.0022704984)


Time = 32

smoothSolver:  Solving for Ux, Initial residual = 0.0017106219, Final residual = 4.6373365e-05, No Iterations 2
smoothSolver:  Solving for Uy, Initial residual = 0.0013232322, Final residual = 3.5369686e-05, No Iterations 2
smoothSolver:  Solving for Uz, Initial residual = 0.0063413563, Final residual = 0.00018254802, No Iterations 2
GAMG:  Solving for p, Initial residual = 0.027318937, Final residual = 0.00015947115, No Iterations 3
GAMG:  Solving for p, Initial residual = 0.0016821606, Final residual = 1.2230077e-05, No Iterations 3
GAMG:  Solving for p, Initial residual = 0.00022418023, Final residual = 2.0875129e-06, No Iterations 3
GAMG:  Solving for p, Initial residual = 5.0129168e-05, Final residual = 2.6695807e-07, No Iterations 4
GAMG:  Solving for p, Initial residual = 1.1857415e-05, Final residual = 6.3413248e-08, No Iterations 4
GAMG:  Solving for p, Initial residual = 3.3250293e-06, Final residual = 3.113675e-08, No Iterations 3
time step continuity errors : sum local = 6.8692488e-09, global = -1.5340315e-10, cumulative = -2.2385589e-08
smoothSolver:  Solving for omega, Initial residual = 0.024699529, Final residual = 0.0016872353, No Iterations 3
smoothSolver:  Solving for k, Initial residual = 0.0096093153, Final residual = 0.00059506459, No Iterations 3
ExecutionTime = 95.297 s  ClockTime = 96 s

forces forces write:
    Sum of forces
        Total    : (0.057254298 3.7002552 -0.1230121)
        Pressure : (0.051452574 3.6997027 -0.12443442)
        Viscous  : (0.0058017245 0.00055246202 0.0014223128)
    Sum of moments
        Total    : (-2.3564009 0.088578323 0.47161569)
        Pressure : (-2.3565885 0.085432919 0.46926301)
        Viscous  : (0.00018756177 0.0031454042 0.002352677)


Time = 33

smoothSolver:  Solving for Ux, Initial residual = 0.0016775903, Final residual = 4.5718166e-05, No Iterations 2
smoothSolver:  Solving for Uy, Initial residual = 0.0013155224, Final residual = 3.4911898e-05, No Iterations 2
smoothSolver:  Solving for Uz, Initial residual = 0.0061976701, Final residual = 0.00017896855, No Iterations 2
GAMG:  Solving for p, Initial residual = 0.025814909, Final residual = 0.00015984466, No Iterations 3
GAMG:  Solving for p, Initial residual = 0.0015957569, Final residual = 1.3408872e-05, No Iterations 3
GAMG:  Solving for p, Initial residual = 0.00021691842, Final residual = 1.7403287e-06, No Iterations 4
GAMG:  Solving for p, Initial residual = 4.9077172e-05, Final residual = 2.8795907e-07, No Iterations 4
GAMG:  Solving for p, Initial residual = 1.1700587e-05, Final residual = 6.211505e-08, No Iterations 4
GAMG:  Solving for p, Initial residual = 3.3536489e-06, Final residual = 2.8558295e-08, No Iterations 3
time step continuity errors : sum local = 6.2829867e-09, global = -4.0239427e-10, cumulative = -2.2787983e-08
smoothSolver:  Solving for omega, Initial residual = 0.023680097, Final residual = 0.0016174445, No Iterations 3
smoothSolver:  Solving for k, Initial residual = 0.0093667794, Final residual = 0.00057915252, No Iterations 3
ExecutionTime = 97.747 s  ClockTime = 98 s

forces forces write:
    Sum of forces
        Total    : (0.058162925 3.6980927 -0.12221441)
        Pressure : (0.051985579 3.6978762 -0.1237474)
        Viscous  : (0.0061773463 0.00021651929 0.0015329884)
    Sum of moments
        Total    : (-2.3551216 0.088847341 0.47113441)
        Pressure : (-2.3554988 0.085554807 0.4686957)
        Viscous  : (0.00037722736 0.0032925341 0.00243871)


Time = 34

smoothSolver:  Solving for Ux, Initial residual = 0.0016487612, Final residual = 4.5021662e-05, No Iterations 2
smoothSolver:  Solving for Uy, Initial residual = 0.0013016751, Final residual = 3.4573328e-05, No Iterations 2
smoothSolver:  Solving for Uz, Initial residual = 0.006086928, Final residual = 0.00017802655, No Iterations 2
GAMG:  Solving for p, Initial residual = 0.024450441, Final residual = 0.00014516104, No Iterations 3
GAMG:  Solving for p, Initial residual = 0.0014765828, Final residual = 1.3903553e-05, No Iterations 3
GAMG:  Solving for p, Initial residual = 0.00020703455, Final residual = 1.6296404e-06, No Iterations 4
GAMG:  Solving for p, Initial residual = 4.7147432e-05, Final residual = 2.7064601e-07, No Iterations 4
GAMG:  Solving for p, Initial residual = 1.1443644e-05, Final residual = 6.0561732e-08, No Iterations 4
GAMG:  Solving for p, Initial residual = 3.353593e-06, Final residual = 2.8367254e-08, No Iterations 3
time step continuity errors : sum local = 6.2242171e-09, global = -4.0345966e-10, cumulative = -2.3191443e-08
smoothSolver:  Solving for omega, Initial residual = 0.02272645, Final residual = 0.0015521326, No Iterations 3
smoothSolver:  Solving for k, Initial residual = 0.0091407495, Final residual = 0.00056431721, No Iterations 3
ExecutionTime = 100.19 s  ClockTime = 101 s

forces forces write:
    Sum of forces
        Total    : (0.059522476 3.696614 -0.12124513)
        Pressure : (0.05302808 3.6967446 -0.12286135)
        Viscous  : (0.0064943961 -0.00013056069 0.0016162177)
    Sum of moments
        Total    : (-2.3543803 0.0892675 0.47216819)
        Pressure : (-2.3549499 0.085863677 0.4696394)
        Viscous  : (0.00056957238 0.0034038229 0.0025287885)


Time = 35

smoothSolver:  Solving for Ux, Initial residual = 0.0016263875, Final residual = 4.4422161e-05, No Iterations 2
smoothSolver:  Solving for Uy, Initial residual = 0.0012587199, Final residual = 3.3396332e-05, No Iterations 2
smoothSolver:  Solving for Uz, Initial residual = 0.0059972141, Final residual = 0.00017854536, No Iterations 2
GAMG:  Solving for p, Initial residual = 0.023225541, Final residual = 0.00012458151, No Iterations 3
GAMG:  Solving for p, Initial residual = 0.0013797368, Final residual = 1.2270388e-05, No Iterations 3
GAMG:  Solving for p, Initial residual = 0.00019672489, Final residual = 1.4660942e-06, No Iterations 4
GAMG:  Solving for p, Initial residual = 4.488598e-05, Final residual = 2.5856159e-07, No Iterations 4
GAMG:  Solving for p, Initial residual = 1.0981061e-05, Final residual = 5.9327111e-08, No Iterations 4
GAMG:  Solving for p, Initial residual = 3.1966771e-06, Final residual = 2.8081096e-08, No Iterations 3
time step continuity errors : sum local = 6.1510835e-09, global = -3.8857304e-10, cumulative = -2.3580016e-08
smoothSolver:  Solving for omega, Initial residual = 0.02183274, Final residual = 0.0014909068, No Iterations 3
smoothSolver:  Solving for k, Initial residual = 0.0089296187, Final residual = 0.00055047785, No Iterations 3
ExecutionTime = 102.58 s  ClockTime = 103 s

forces forces write:
    Sum of forces
        Total    : (0.061202981 3.6964384 -0.12018685)
        Pressure : (0.054471465 3.696924 -0.12185164)
        Viscous  : (0.0067315159 -0.00048559352 0.001664795)
    Sum of moments
        Total    : (-2.3544633 0.089769763 0.4739724)
        Pressure : (-2.3552275 0.086295631 0.47135007)
        Viscous  : (0.00076423277 0.003474132 0.0026223329)


Time = 36

smoothSolver:  Solving for Ux, Initial residual = 0.0016100192, Final residual = 4.3956195e-05, No Iterations 2
smoothSolver:  Solving for Uy, Initial residual = 0.0012015582, Final residual = 3.1777191e-05, No Iterations 2
smoothSolver:  Solving for Uz, Initial residual = 0.0059114065, Final residual = 0.00017945688, No Iterations 2
GAMG:  Solving for p, Initial residual = 0.02208258, Final residual = 0.00011260759, No Iterations 3
GAMG:  Solving for p, Initial residual = 0.0012884355, Final residual = 1.0466053e-05, No Iterations 3
GAMG:  Solving for p, Initial residual = 0.00018534138, Final residual = 1.2785861e-06, No Iterations 4
GAMG:  Solving for p, Initial residual = 4.2498275e-05, Final residual = 2.4064262e-07, No Iterations 4
GAMG:  Solving for p, Initial residual = 1.0380806e-05, Final residual = 5.6480016e-08, No Iterations 4
GAMG:  Solving for p, Initial residual = 2.9840129e-06, Final residual = 2.6430117e-08, No Iterations 3
time step continuity errors : sum local = 5.7831797e-09, global = -3.561378e-10, cumulative = -2.3936154e-08
smoothSolver:  Solving for omega, Initial residual = 0.020993747, Final residual = 0.0014334082, No Iterations 3
smoothSolver:  Solving for k, Initial residual = 0.0087319772, Final residual = 0.00053755696, No Iterations 3
ExecutionTime = 105.04 s  ClockTime = 105 s

forces forces write:
    Sum of forces
        Total    : (0.06290032 3.6971052 -0.11919182)
        Pressure : (0.056026166 3.6979416 -0.12086726)
        Viscous  : (0.0068741545 -0.00083639525 0.0016754455)
    Sum of moments
        Total    : (-2.3550234 0.090229351 0.47557363)
        Pressure : (-2.3559802 0.086732495 0.47285638)
        Viscous  : (0.00095676258 0.0034968557 0.0027172548)


Time = 37

smoothSolver:  Solving for Ux, Initial residual = 0.0015976783, Final residual = 4.3381768e-05, No Iterations 2
smoothSolver:  Solving for Uy, Initial residual = 0.0011528327, Final residual = 3.0588937e-05, No Iterations 2
smoothSolver:  Solving for Uz, Initial residual = 0.0058221907, Final residual = 0.00018004503, No Iterations 2
GAMG:  Solving for p, Initial residual = 0.021052455, Final residual = 0.00010648681, No Iterations 3
GAMG:  Solving for p, Initial residual = 0.0012081074, Final residual = 9.8028982e-06, No Iterations 3
GAMG:  Solving for p, Initial residual = 0.00017614324, Final residual = 9.7986397e-07, No Iterations 4
GAMG:  Solving for p, Initial residual = 4.0925388e-05, Final residual = 4.0027256e-07, No Iterations 3
GAMG:  Solving for p, Initial residual = 1.0086974e-05, Final residual = 8.1359476e-08, No Iterations 4
GAMG:  Solving for p, Initial residual = 2.927278e-06, Final residual = 1.8316242e-08, No Iterations 4
time step continuity errors : sum local = 4.0026113e-09, global = -1.8256223e-10, cumulative = -2.4118716e-08
smoothSolver:  Solving for omega, Initial residual = 0.020204663, Final residual = 0.0013793148, No Iterations 3
smoothSolver:  Solving for k, Initial residual = 0.0085469623, Final residual = 0.0005254931, No Iterations 3
ExecutionTime = 107.489 s  ClockTime = 108 s

forces forces write:
    Sum of forces
        Total    : (0.064406721 3.6976084 -0.11835113)
        Pressure : (0.057473336 3.6987815 -0.12000459)
        Viscous  : (0.0069333859 -0.0011731337 0.0016534596)
    Sum of moments
        Total    : (-2.3554464 0.090583839 0.47645101)
        Pressure : (-2.3565895 0.087106813 0.47363917)
        Viscous  : (0.0011431628 0.0034770258 0.0028118364)


Time = 38

smoothSolver:  Solving for Ux, Initial residual = 0.0015836418, Final residual = 4.2840994e-05, No Iterations 2
smoothSolver:  Solving for Uy, Initial residual = 0.001125687, Final residual = 3.0012844e-05, No Iterations 2
smoothSolver:  Solving for Uz, Initial residual = 0.0057292857, Final residual = 0.00018010076, No Iterations 2
GAMG:  Solving for p, Initial residual = 0.020000628, Final residual = 9.6835918e-05, No Iterations 3
GAMG:  Solving for p, Initial residual = 0.0011392236, Final residual = 8.1988266e-06, No Iterations 3
GAMG:  Solving for p, Initial residual = 0.00016341257, Final residual = 7.5037686e-07, No Iterations 4
GAMG:  Solving for p, Initial residual = 3.8428512e-05, Final residual = 2.9862674e-07, No Iterations 3
GAMG:  Solving for p, Initial residual = 9.2865428e-06, Final residual = 6.7620071e-08, No Iterations 4
GAMG:  Solving for p, Initial residual = 2.7359836e-06, Final residual = 1.6740664e-08, No Iterations 4
time step continuity errors : sum local = 3.6512938e-09, global = -4.5142424e-11, cumulative = -2.4163858e-08
smoothSolver:  Solving for omega, Initial residual = 0.019461169, Final residual = 0.0013283345, No Iterations 3
smoothSolver:  Solving for k, Initial residual = 0.0083733453, Final residual = 0.00051420789, No Iterations 3
ExecutionTime = 109.899 s  ClockTime = 110 s

forces forces write:
    Sum of forces
        Total    : (0.065693091 3.6972143 -0.11765937)
        Pressure : (0.058750304 3.6987173 -0.11927051)
        Viscous  : (0.0069427863 -0.0015030422 0.0016111419)
    Sum of moments
        Total    : (-2.3553217 0.090848249 0.47672741)
        Pressure : (-2.3566505 0.087416376 0.47381992)
        Viscous  : (0.0013287967 0.0034318731 0.0029074876)


Time = 39

smoothSolver:  Solving for Ux, Initial residual = 0.0015677596, Final residual = 4.2321541e-05, No Iterations 2
smoothSolver:  Solving for Uy, Initial residual = 0.0011165252, Final residual = 2.9782246e-05, No Iterations 2
smoothSolver:  Solving for Uz, Initial residual = 0.0056403826, Final residual = 0.0001796551, No Iterations 2
GAMG:  Solving for p, Initial residual = 0.018986607, Final residual = 8.9168453e-05, No Iterations 3
GAMG:  Solving for p, Initial residual = 0.0010782719, Final residual = 7.242494e-06, No Iterations 3
GAMG:  Solving for p, Initial residual = 0.00015353134, Final residual = 8.6190741e-07, No Iterations 4
GAMG:  Solving for p, Initial residual = 3.6080592e-05, Final residual = 3.4916471e-07, No Iterations 3
GAMG:  Solving for p, Initial residual = 8.708897e-06, Final residual = 7.3944568e-08, No Iterations 4
GAMG:  Solving for p, Initial residual = 2.5191008e-06, Final residual = 1.7109717e-08, No Iterations 4
time step continuity errors : sum local = 3.7223777e-09, global = -1.5971147e-10, cumulative = -2.432357e-08
smoothSolver:  Solving for omega, Initial residual = 0.018758989, Final residual = 0.0012801755, No Iterations 3
smoothSolver:  Solving for k, Initial residual = 0.0082100389, Final residual = 0.00050363137, No Iterations 3
ExecutionTime = 112.369 s  ClockTime = 113 s

forces forces write:
    Sum of forces
        Total    : (0.066829762 3.6959525 -0.11707176)
        Pressure : (0.059911312 3.6977687 -0.11862294)
        Viscous  : (0.0069184501 -0.0018162161 0.0015511799)
    Sum of moments
        Total    : (-2.3546999 0.091061057 0.47688618)
        Pressure : (-2.3562081 0.087693752 0.47388403)
        Viscous  : (0.0015081754 0.0033673047 0.0030021531)


Time = 40

smoothSolver:  Solving for Ux, Initial residual = 0.0015526457, Final residual = 4.1799568e-05, No Iterations 2
smoothSolver:  Solving for Uy, Initial residual = 0.0011115717, Final residual = 2.9804693e-05, No Iterations 2
smoothSolver:  Solving for Uz, Initial residual = 0.0055580291, Final residual = 0.00017864124, No Iterations 2
GAMG:  Solving for p, Initial residual = 0.018147262, Final residual = 8.64767e-05, No Iterations 3
GAMG:  Solving for p, Initial residual = 0.0010291179, Final residual = 7.8243438e-06, No Iterations 3
GAMG:  Solving for p, Initial residual = 0.00014772525, Final residual = 8.8309107e-07, No Iterations 4
GAMG:  Solving for p, Initial residual = 3.4239084e-05, Final residual = 1.7587192e-07, No Iterations 4
GAMG:  Solving for p, Initial residual = 8.1791464e-06, Final residual = 7.9708164e-08, No Iterations 3
GAMG:  Solving for p, Initial residual = 2.3490923e-06, Final residual = 1.6600248e-08, No Iterations 4
time step continuity errors : sum local = 3.6018863e-09, global = -1.7432285e-10, cumulative = -2.4497893e-08
smoothSolver:  Solving for omega, Initial residual = 0.018093439, Final residual = 0.0012345429, No Iterations 3
smoothSolver:  Solving for k, Initial residual = 0.0080557275, Final residual = 0.00049367853, No Iterations 3
ExecutionTime = 114.859 s  ClockTime = 115 s

forces forces write:
    Sum of forces
        Total    : (0.067930547 3.6943895 -0.11652219)
        Pressure : (0.061057276 3.696511 -0.11800459)
        Viscous  : (0.0068732709 -0.0021214891 0.0014824019)
    Sum of moments
        Total    : (-2.3539331 0.09126551 0.47734737)
        Pressure : (-2.3556185 0.087976026 0.47425033)
        Viscous  : (0.0016853416 0.003289484 0.0030970372)


Time = 41

smoothSolver:  Solving for Ux, Initial residual = 0.0015403939, Final residual = 4.1343387e-05, No Iterations 2
smoothSolver:  Solving for Uy, Initial residual = 0.0010928609, Final residual = 2.9354385e-05, No Iterations 2
smoothSolver:  Solving for Uz, Initial residual = 0.0054802709, Final residual = 0.00017707466, No Iterations 2
GAMG:  Solving for p, Initial residual = 0.017449068, Final residual = 8.0949148e-05, No Iterations 3
GAMG:  Solving for p, Initial residual = 0.00098388116, Final residual = 7.4275558e-06, No Iterations 3
GAMG:  Solving for p, Initial residual = 0.00014394539, Final residual = 7.5233159e-07, No Iterations 4
GAMG:  Solving for p, Initial residual = 3.3714412e-05, Final residual = 2.9380741e-07, No Iterations 3
GAMG:  Solving for p, Initial residual = 8.2572564e-06, Final residual = 5.5539423e-08, No Iterations 4
GAMG:  Solving for p, Initial residual = 2.364933e-06, Final residual = 1.2942139e-08, No Iterations 4
time step continuity errors : sum local = 2.8014491e-09, global = -1.5139382e-10, cumulative = -2.4649286e-08
smoothSolver:  Solving for omega, Initial residual = 0.017460859, Final residual = 0.0011912234, No Iterations 3
smoothSolver:  Solving for k, Initial residual = 0.0079096889, Final residual = 0.00048430777, No Iterations 3
ExecutionTime = 117.359 s  ClockTime = 118 s

forces forces write:
    Sum of forces
        Total    : (0.068950442 3.6931582 -0.11602368)
        Pressure : (0.062144047 3.6955628 -0.11742457)
        Viscous  : (0.0068063947 -0.0024046188 0.0014008861)
    Sum of moments
        Total    : (-2.353385 0.091457812 0.47819125)
        Pressure : (-2.3552378 0.088259545 0.47500143)
        Viscous  : (0.0018527394 0.0031982671 0.0031898165)


Time = 42

smoothSolver:  Solving for Ux, Initial residual = 0.0015316719, Final residual = 4.0879522e-05, No Iterations 2
smoothSolver:  Solving for Uy, Initial residual = 0.0010659803, Final residual = 2.874957e-05, No Iterations 2
smoothSolver:  Solving for Uz, Initial residual = 0.005413782, Final residual = 0.00017524744, No Iterations 2
GAMG:  Solving for p, Initial residual = 0.016781832, Final residual = 7.4475721e-05, No Iterations 3
GAMG:  Solving for p, Initial residual = 0.00093495444, Final residual = 6.6568479e-06, No Iterations 3
GAMG:  Solving for p, Initial residual = 0.00013875182, Final residual = 6.0155982e-07, No Iterations 4
GAMG:  Solving for p, Initial residual = 3.2568706e-05, Final residual = 2.1702147e-07, No Iterations 3
GAMG:  Solving for p, Initial residual = 8.0507312e-06, Final residual = 4.1459511e-08, No Iterations 4
GAMG:  Solving for p, Initial residual = 2.3396512e-06, Final residual = 1.9533121e-08, No Iterations 3
time step continuity errors : sum local = 4.2195372e-09, global = -2.3629855e-10, cumulative = -2.4885585e-08
smoothSolver:  Solving for omega, Initial residual = 0.016859147, Final residual = 0.0011500498, No Iterations 3
smoothSolver:  Solving for k, Initial residual = 0.0077709705, Final residual = 0.00047547423, No Iterations 3
ExecutionTime = 119.709 s  ClockTime = 120 s

forces forces write:
    Sum of forces
        Total    : (0.069786984 3.6924455 -0.11560499)
        Pressure : (0.063055285 3.6951269 -0.11692298)
        Viscous  : (0.0067316998 -0.0026814202 0.0013179951)
    Sum of moments
        Total    : (-2.3531386 0.091619104 0.47918673)
        Pressure : (-2.3551581 0.088516433 0.47590278)
        Viscous  : (0.0020194441 0.0031026714 0.0032839465)


Time = 43

smoothSolver:  Solving for Ux, Initial residual = 0.0015240101, Final residual = 4.0447091e-05, No Iterations 2
smoothSolver:  Solving for Uy, Initial residual = 0.0010434459, Final residual = 2.8207244e-05, No Iterations 2
smoothSolver:  Solving for Uz, Initial residual = 0.0053538261, Final residual = 0.00017296877, No Iterations 2
GAMG:  Solving for p, Initial residual = 0.016139221, Final residual = 6.8807089e-05, No Iterations 3
GAMG:  Solving for p, Initial residual = 0.00088131669, Final residual = 6.3601458e-06, No Iterations 3
GAMG:  Solving for p, Initial residual = 0.00013162422, Final residual = 5.9595928e-07, No Iterations 4
GAMG:  Solving for p, Initial residual = 3.0393909e-05, Final residual = 2.4073893e-07, No Iterations 3
GAMG:  Solving for p, Initial residual = 7.5665419e-06, Final residual = 4.1373466e-08, No Iterations 4
GAMG:  Solving for p, Initial residual = 2.1516084e-06, Final residual = 2.007866e-08, No Iterations 3
time step continuity errors : sum local = 4.3294069e-09, global = 2.055067e-10, cumulative = -2.4680078e-08
smoothSolver:  Solving for omega, Initial residual = 0.016286887, Final residual = 0.0011109538, No Iterations 3
smoothSolver:  Solving for k, Initial residual = 0.0076387569, Final residual = 0.00046712169, No Iterations 3
ExecutionTime = 122.128 s  ClockTime = 123 s

forces forces write:
    Sum of forces
        Total    : (0.070371093 3.6920093 -0.11529549)
        Pressure : (0.063718342 3.6949652 -0.11652147)
        Viscous  : (0.0066527511 -0.0029559252 0.0012259797)
    Sum of moments
        Total    : (-2.3530247 0.091720263 0.48002087)
        Pressure : (-2.3552096 0.088719563 0.47664139)
        Viscous  : (0.0021849278 0.0030006997 0.0033794844)


Time = 44

smoothSolver:  Solving for Ux, Initial residual = 0.0015158972, Final residual = 4.0083157e-05, No Iterations 2
smoothSolver:  Solving for Uy, Initial residual = 0.0010290125, Final residual = 2.7812963e-05, No Iterations 2
smoothSolver:  Solving for Uz, Initial residual = 0.0052967155, Final residual = 0.00017009155, No Iterations 2
GAMG:  Solving for p, Initial residual = 0.015566056, Final residual = 6.2473841e-05, No Iterations 3
GAMG:  Solving for p, Initial residual = 0.00083527533, Final residual = 5.890707e-06, No Iterations 3
GAMG:  Solving for p, Initial residual = 0.00012600086, Final residual = 6.1975372e-07, No Iterations 4
GAMG:  Solving for p, Initial residual = 2.9143717e-05, Final residual = 2.7161785e-07, No Iterations 3
GAMG:  Solving for p, Initial residual = 7.3253108e-06, Final residual = 5.2350588e-08, No Iterations 4
GAMG:  Solving for p, Initial residual = 2.0565053e-06, Final residual = 1.2362261e-08, No Iterations 4
time step continuity errors : sum local = 2.6604559e-09, global = 1.5978931e-10, cumulative = -2.4520289e-08
smoothSolver:  Solving for omega, Initial residual = 0.015742691, Final residual = 0.0010738287, No Iterations 3
smoothSolver:  Solving for k, Initial residual = 0.0075125913, Final residual = 0.00045921432, No Iterations 3
ExecutionTime = 124.458 s  ClockTime = 125 s

forces forces write:
    Sum of forces
        Total    : (0.070744226 3.691469 -0.11508496)
        Pressure : (0.064172693 3.694701 -0.11620544)
        Viscous  : (0.0065715336 -0.0032320483 0.0011204816)
    Sum of moments
        Total    : (-2.3528067 0.091766829 0.48054892)
        Pressure : (-2.3551588 0.088869885 0.47707126)
        Viscous  : (0.0023520215 0.0028969441 0.0034776581)


Time = 45

smoothSolver:  Solving for Ux, Initial residual = 0.0015067352, Final residual = 3.9699484e-05, No Iterations 2
smoothSolver:  Solving for Uy, Initial residual = 0.0010212423, Final residual = 2.7571459e-05, No Iterations 2
smoothSolver:  Solving for Uz, Initial residual = 0.0052383532, Final residual = 0.00016665598, No Iterations 2
GAMG:  Solving for p, Initial residual = 0.015031446, Final residual = 5.7400622e-05, No Iterations 3
GAMG:  Solving for p, Initial residual = 0.00079570893, Final residual = 5.348242e-06, No Iterations 3
GAMG:  Solving for p, Initial residual = 0.00012039591, Final residual = 6.9430133e-07, No Iterations 4
GAMG:  Solving for p, Initial residual = 2.863912e-05, Final residual = 1.5959564e-07, No Iterations 4
GAMG:  Solving for p, Initial residual = 7.1010356e-06, Final residual = 4.0123367e-08, No Iterations 4
[...]
smoothSolver:  Solving for k, Initial residual = 0.0012134692, Final residual = 6.1180812e-05, No Iterations 3
ExecutionTime = 857.834 s  ClockTime = 858 s

forces forces write:
    Sum of forces
        Total    : (0.079493507 3.7398981 -0.065704902)
        Pressure : (0.078144268 3.7240314 -0.068258408)
        Viscous  : (0.001349239 0.015866761 0.0025535063)
    Sum of moments
        Total    : (-2.3728466 0.062240331 0.5728195)
        Pressure : (-2.3615991 0.068811553 0.52564496)
        Viscous  : (-0.011247559 -0.0065712222 0.047174535)


Time = 273

smoothSolver:  Solving for Ux, Initial residual = 7.6011029e-05, Final residual = 2.313448e-06, No Iterations 2
smoothSolver:  Solving for Uy, Initial residual = 6.6315046e-05, Final residual = 2.3973602e-06, No Iterations 2
smoothSolver:  Solving for Uz, Initial residual = 0.00019831727, Final residual = 6.656155e-06, No Iterations 2
GAMG:  Solving for p, Initial residual = 0.00030384824, Final residual = 2.9143798e-06, No Iterations 3
GAMG:  Solving for p, Initial residual = 2.7275227e-05, Final residual = 2.7055152e-07, No Iterations 4
GAMG:  Solving for p, Initial residual = 4.238899e-06, Final residual = 2.3014652e-08, No Iterations 5
GAMG:  Solving for p, Initial residual = 9.6779844e-07, Final residual = 6.6518585e-09, No Iterations 4
GAMG:  Solving for p, Initial residual = 2.4206122e-07, Final residual = 6.0449151e-09, No Iterations 2
GAMG:  Solving for p, Initial residual = 7.395325e-08, Final residual = 6.3554988e-09, No Iterations 1
time step continuity errors : sum local = 7.7749105e-10, global = -3.2421633e-11, cumulative = -2.8572724e-08
smoothSolver:  Solving for omega, Initial residual = 0.00014951819, Final residual = 7.8194091e-06, No Iterations 3
smoothSolver:  Solving for k, Initial residual = 0.0011925332, Final residual = 6.0070968e-05, No Iterations 3
ExecutionTime = 860.279 s  ClockTime = 861 s

forces forces write:
    Sum of forces
        Total    : (0.079515964 3.7399774 -0.065670436)
        Pressure : (0.078154928 3.7240829 -0.068240033)
        Viscous  : (0.0013610366 0.015894499 0.0025695972)
    Sum of moments
        Total    : (-2.3728684 0.062226625 0.57288635)
        Pressure : (-2.3616045 0.068790117 0.52567342)
        Viscous  : (-0.011263865 -0.0065634924 0.047212926)


Time = 274

smoothSolver:  Solving for Ux, Initial residual = 7.510474e-05, Final residual = 2.286724e-06, No Iterations 2
smoothSolver:  Solving for Uy, Initial residual = 6.551992e-05, Final residual = 2.3685329e-06, No Iterations 2
smoothSolver:  Solving for Uz, Initial residual = 0.00019588633, Final residual = 6.5729189e-06, No Iterations 2
GAMG:  Solving for p, Initial residual = 0.00030014823, Final residual = 2.8576937e-06, No Iterations 3
GAMG:  Solving for p, Initial residual = 2.6876032e-05, Final residual = 2.6494974e-07, No Iterations 4
GAMG:  Solving for p, Initial residual = 4.1845553e-06, Final residual = 2.2429499e-08, No Iterations 5
GAMG:  Solving for p, Initial residual = 9.5151277e-07, Final residual = 6.4729966e-09, No Iterations 4
GAMG:  Solving for p, Initial residual = 2.3843292e-07, Final residual = 5.8933204e-09, No Iterations 2
GAMG:  Solving for p, Initial residual = 7.287182e-08, Final residual = 6.2137618e-09, No Iterations 1
time step continuity errors : sum local = 7.5923264e-10, global = -3.1420055e-11, cumulative = -2.8604144e-08
smoothSolver:  Solving for omega, Initial residual = 0.00014807084, Final residual = 7.7467371e-06, No Iterations 3
smoothSolver:  Solving for k, Initial residual = 0.0011718575, Final residual = 5.8976433e-05, No Iterations 3
ExecutionTime = 862.829 s  ClockTime = 863 s

forces forces write:
    Sum of forces
        Total    : (0.079538089 3.7400551 -0.065637096)
        Pressure : (0.078165102 3.7241326 -0.0682224)
        Viscous  : (0.0013729869 0.015922516 0.0025853039)
    Sum of moments
        Total    : (-2.3728896 0.062213765 0.57295203)
        Pressure : (-2.3616098 0.068769393 0.52570059)
        Viscous  : (-0.011279848 -0.0065556284 0.047251438)


Time = 275

smoothSolver:  Solving for Ux, Initial residual = 7.421125e-05, Final residual = 2.260342e-06, No Iterations 2
smoothSolver:  Solving for Uy, Initial residual = 6.4731325e-05, Final residual = 2.3399059e-06, No Iterations 2
smoothSolver:  Solving for Uz, Initial residual = 0.00019347328, Final residual = 6.4901684e-06, No Iterations 2
GAMG:  Solving for p, Initial residual = 0.00029640576, Final residual = 2.8026323e-06, No Iterations 3
GAMG:  Solving for p, Initial residual = 2.6435154e-05, Final residual = 2.5981004e-07, No Iterations 4
GAMG:  Solving for p, Initial residual = 4.1083078e-06, Final residual = 2.1696857e-08, No Iterations 5
GAMG:  Solving for p, Initial residual = 9.3590881e-07, Final residual = 6.0231235e-09, No Iterations 4
GAMG:  Solving for p, Initial residual = 2.345108e-07, Final residual = 5.4969617e-09, No Iterations 2
GAMG:  Solving for p, Initial residual = 7.1044349e-08, Final residual = 5.8617666e-09, No Iterations 1
time step continuity errors : sum local = 7.1537112e-10, global = -2.886864e-11, cumulative = -2.8633013e-08
smoothSolver:  Solving for omega, Initial residual = 0.00014665739, Final residual = 7.6756813e-06, No Iterations 3
smoothSolver:  Solving for k, Initial residual = 0.001151466, Final residual = 5.7898354e-05, No Iterations 3
ExecutionTime = 865.228 s  ClockTime = 866 s

forces forces write:
    Sum of forces
        Total    : (0.07955989 3.7401313 -0.065604712)
        Pressure : (0.078174792 3.7241805 -0.068205479)
        Viscous  : (0.0013850979 0.015950819 0.002600767)
    Sum of moments
        Total    : (-2.3729104 0.06220167 0.57301657)
        Pressure : (-2.361615 0.068749378 0.52572649)
        Viscous  : (-0.011295487 -0.006547708 0.047290083)


Time = 276

smoothSolver:  Solving for Ux, Initial residual = 7.3329732e-05, Final residual = 2.2343082e-06, No Iterations 2
smoothSolver:  Solving for Uy, Initial residual = 6.3950552e-05, Final residual = 2.3114429e-06, No Iterations 2
smoothSolver:  Solving for Uz, Initial residual = 0.00019107781, Final residual = 6.4078798e-06, No Iterations 2
GAMG:  Solving for p, Initial residual = 0.00029267211, Final residual = 2.7494933e-06, No Iterations 3
GAMG:  Solving for p, Initial residual = 2.5983838e-05, Final residual = 2.5449982e-07, No Iterations 4
GAMG:  Solving for p, Initial residual = 4.0597963e-06, Final residual = 2.0685624e-08, No Iterations 5
GAMG:  Solving for p, Initial residual = 9.1733634e-07, Final residual = 5.7959437e-09, No Iterations 4
GAMG:  Solving for p, Initial residual = 2.3014451e-07, Final residual = 5.3026476e-09, No Iterations 2
GAMG:  Solving for p, Initial residual = 6.9562533e-08, Final residual = 5.6796886e-09, No Iterations 1
time step continuity errors : sum local = 6.9233765e-10, global = -2.8011919e-11, cumulative = -2.8661025e-08
smoothSolver:  Solving for omega, Initial residual = 0.00014527581, Final residual = 7.6061704e-06, No Iterations 3
smoothSolver:  Solving for k, Initial residual = 0.0011313551, Final residual = 5.6836499e-05, No Iterations 3
ExecutionTime = 867.62 s  ClockTime = 868 s

forces forces write:
    Sum of forces
        Total    : (0.079581345 3.740206 -0.065573419)
        Pressure : (0.078184021 3.7242267 -0.068189216)
        Viscous  : (0.0013973235 0.015979319 0.0026157966)
    Sum of moments
        Total    : (-2.3729308 0.06219043 0.57307993)
        Pressure : (-2.36162 0.068730012 0.52575118)
        Viscous  : (-0.011310805 -0.0065395818 0.047328755)


Time = 277

smoothSolver:  Solving for Ux, Initial residual = 7.2460625e-05, Final residual = 2.2086549e-06, No Iterations 2
smoothSolver:  Solving for Uy, Initial residual = 6.3171677e-05, Final residual = 2.2831003e-06, No Iterations 2
smoothSolver:  Solving for Uz, Initial residual = 0.0001887007, Final residual = 6.3260916e-06, No Iterations 2
GAMG:  Solving for p, Initial residual = 0.00028882991, Final residual = 2.6961848e-06, No Iterations 3
GAMG:  Solving for p, Initial residual = 2.5586485e-05, Final residual = 2.4841887e-07, No Iterations 4
GAMG:  Solving for p, Initial residual = 4.0092126e-06, Final residual = 2.0210129e-08, No Iterations 5
GAMG:  Solving for p, Initial residual = 9.0932911e-07, Final residual = 5.6355646e-09, No Iterations 4
GAMG:  Solving for p, Initial residual = 2.2817445e-07, Final residual = 5.1728279e-09, No Iterations 2
GAMG:  Solving for p, Initial residual = 6.8888518e-08, Final residual = 5.560859e-09, No Iterations 1
time step continuity errors : sum local = 6.7707011e-10, global = -2.7316814e-11, cumulative = -2.8688342e-08
smoothSolver:  Solving for omega, Initial residual = 0.00014392358, Final residual = 7.5380102e-06, No Iterations 3
smoothSolver:  Solving for k, Initial residual = 0.00111152, Final residual = 5.5790593e-05, No Iterations 3
ExecutionTime = 870.03 s  ClockTime = 870 s

forces forces write:
    Sum of forces
        Total    : (0.079602508 3.7402794 -0.065543084)
        Pressure : (0.078192788 3.7242712 -0.068173623)
        Viscous  : (0.0014097209 0.016008184 0.0026305385)
    Sum of moments
        Total    : (-2.3729506 0.06217984 0.57314227)
        Pressure : (-2.3616249 0.068711248 0.52577468)
        Viscous  : (-0.011325787 -0.006531408 0.047367586)


Time = 278

smoothSolver:  Solving for Ux, Initial residual = 7.1603524e-05, Final residual = 2.1833519e-06, No Iterations 2
smoothSolver:  Solving for Uy, Initial residual = 6.239666e-05, Final residual = 2.2549608e-06, No Iterations 2
smoothSolver:  Solving for Uz, Initial residual = 0.00018633756, Final residual = 6.2448556e-06, No Iterations 2
GAMG:  Solving for p, Initial residual = 0.00028514189, Final residual = 2.6408143e-06, No Iterations 3
GAMG:  Solving for p, Initial residual = 2.5216012e-05, Final residual = 2.4219258e-07, No Iterations 4
GAMG:  Solving for p, Initial residual = 3.9626883e-06, Final residual = 1.964464e-08, No Iterations 5
GAMG:  Solving for p, Initial residual = 9.013866e-07, Final residual = 9.9186706e-09, No Iterations 3
GAMG:  Solving for p, Initial residual = 2.2920752e-07, Final residual = 7.5835336e-09, No Iterations 2
GAMG:  Solving for p, Initial residual = 7.0782758e-08, Final residual = 7.6061212e-09, No Iterations 1
time step continuity errors : sum local = 9.2504128e-10, global = -4.7309208e-11, cumulative = -2.8735651e-08
smoothSolver:  Solving for omega, Initial residual = 0.00014259946, Final residual = 7.4710961e-06, No Iterations 3
smoothSolver:  Solving for k, Initial residual = 0.0010919595, Final residual = 5.4760515e-05, No Iterations 3
ExecutionTime = 872.47 s  ClockTime = 873 s

forces forces write:
    Sum of forces
        Total    : (0.079623357 3.7403514 -0.06551374)
        Pressure : (0.078201083 3.7243141 -0.068158706)
        Viscous  : (0.0014222736 0.016037284 0.0026449666)
    Sum of moments
        Total    : (-2.3729701 0.062169953 0.57320351)
        Pressure : (-2.3616297 0.068693061 0.52579701)
        Viscous  : (-0.011340441 -0.0065231081 0.047406495)


Time = 279

smoothSolver:  Solving for Ux, Initial residual = 7.0758388e-05, Final residual = 2.1584061e-06, No Iterations 2
smoothSolver:  Solving for Uy, Initial residual = 6.1628788e-05, Final residual = 2.2270003e-06, No Iterations 2
smoothSolver:  Solving for Uz, Initial residual = 0.00018399064, Final residual = 6.163998e-06, No Iterations 2
GAMG:  Solving for p, Initial residual = 0.00028155647, Final residual = 2.5864097e-06, No Iterations 3
GAMG:  Solving for p, Initial residual = 2.4790144e-05, Final residual = 2.3723928e-07, No Iterations 4
GAMG:  Solving for p, Initial residual = 3.9123217e-06, Final residual = 1.9111124e-08, No Iterations 5
GAMG:  Solving for p, Initial residual = 8.8844329e-07, Final residual = 9.7213973e-09, No Iterations 3
GAMG:  Solving for p, Initial residual = 2.2656102e-07, Final residual = 7.4087756e-09, No Iterations 2
GAMG:  Solving for p, Initial residual = 6.9869409e-08, Final residual = 7.4371196e-09, No Iterations 1
time step continuity errors : sum local = 9.0347528e-10, global = -4.6087155e-11, cumulative = -2.8781738e-08
smoothSolver:  Solving for omega, Initial residual = 0.00014130111, Final residual = 7.4053862e-06, No Iterations 3
smoothSolver:  Solving for k, Initial residual = 0.0010726695, Final residual = 5.3746006e-05, No Iterations 3
ExecutionTime = 874.657 s  ClockTime = 875 s

forces forces write:
    Sum of forces
        Total    : (0.079643916 3.7404219 -0.065485279)
        Pressure : (0.078208907 3.7243553 -0.068144441)
        Viscous  : (0.0014350087 0.01606668 0.002659162)
    Sum of moments
        Total    : (-2.3729891 0.062160719 0.57326372)
        Pressure : (-2.3616343 0.068675467 0.52581817)
        Viscous  : (-0.011354764 -0.0065147486 0.047445552)


Time = 280

smoothSolver:  Solving for Ux, Initial residual = 6.9924318e-05, Final residual = 2.1337751e-06, No Iterations 2
smoothSolver:  Solving for Uy, Initial residual = 6.0864808e-05, Final residual = 2.1991573e-06, No Iterations 2
smoothSolver:  Solving for Uz, Initial residual = 0.00018165907, Final residual = 6.0835321e-06, No Iterations 2
GAMG:  Solving for p, Initial residual = 0.00027792299, Final residual = 2.5332627e-06, No Iterations 3
GAMG:  Solving for p, Initial residual = 2.4322636e-05, Final residual = 2.3249096e-07, No Iterations 4
GAMG:  Solving for p, Initial residual = 3.8529113e-06, Final residual = 1.8635775e-08, No Iterations 5
GAMG:  Solving for p, Initial residual = 8.7224828e-07, Final residual = 9.512809e-09, No Iterations 3
GAMG:  Solving for p, Initial residual = 2.226786e-07, Final residual = 7.2254592e-09, No Iterations 2
GAMG:  Solving for p, Initial residual = 6.8498767e-08, Final residual = 7.2507266e-09, No Iterations 1
time step continuity errors : sum local = 8.7986124e-10, global = -4.5067257e-11, cumulative = -2.8826805e-08
smoothSolver:  Solving for omega, Initial residual = 0.00014002828, Final residual = 7.3407996e-06, No Iterations 3
smoothSolver:  Solving for k, Initial residual = 0.0010536477, Final residual = 5.274692e-05, No Iterations 3
ExecutionTime = 876.967 s  ClockTime = 877 s

forces forces write:
    Sum of forces
        Total    : (0.079664137 3.7404912 -0.065457737)
        Pressure : (0.078216262 3.7243949 -0.068130758)
        Viscous  : (0.0014478753 0.016096337 0.002673021)
    Sum of moments
        Total    : (-2.3730077 0.062152136 0.57332289)
        Pressure : (-2.361639 0.068658427 0.52583822)
        Viscous  : (-0.011368786 -0.0065062914 0.047484668)


Time = 281

smoothSolver:  Solving for Ux, Initial residual = 6.9101724e-05, Final residual = 2.1094463e-06, No Iterations 2
smoothSolver:  Solving for Uy, Initial residual = 6.0107194e-05, Final residual = 2.1714688e-06, No Iterations 2
smoothSolver:  Solving for Uz, Initial residual = 0.00017934506, Final residual = 6.0036524e-06, No Iterations 2
GAMG:  Solving for p, Initial residual = 0.0002742818, Final residual = 2.483089e-06, No Iterations 3
GAMG:  Solving for p, Initial residual = 2.3903399e-05, Final residual = 2.2820658e-07, No Iterations 4
GAMG:  Solving for p, Initial residual = 3.786544e-06, Final residual = 1.8249172e-08, No Iterations 5
GAMG:  Solving for p, Initial residual = 8.5787726e-07, Final residual = 9.3723937e-09, No Iterations 3
GAMG:  Solving for p, Initial residual = 2.1956331e-07, Final residual = 7.0983651e-09, No Iterations 2
GAMG:  Solving for p, Initial residual = 6.7502783e-08, Final residual = 7.1101482e-09, No Iterations 1
time step continuity errors : sum local = 8.6186637e-10, global = -4.3744397e-11, cumulative = -2.887055e-08
smoothSolver:  Solving for omega, Initial residual = 0.00013877985, Final residual = 7.2772301e-06, No Iterations 3
smoothSolver:  Solving for k, Initial residual = 0.0010348922, Final residual = 5.1763102e-05, No Iterations 3
ExecutionTime = 879.397 s  ClockTime = 880 s

forces forces write:
    Sum of forces
        Total    : (0.079684082 3.7405594 -0.065430914)
        Pressure : (0.078223215 3.7244331 -0.068117574)
        Viscous  : (0.0014608673 0.016126282 0.0026866593)
    Sum of moments
        Total    : (-2.3730261 0.062144046 0.57338117)
        Pressure : (-2.3616435 0.068641889 0.52585731)
        Viscous  : (-0.011382531 -0.0064978435 0.047523869)


Time = 282

smoothSolver:  Solving for Ux, Initial residual = 6.8289582e-05, Final residual = 2.0854228e-06, No Iterations 2
smoothSolver:  Solving for Uy, Initial residual = 5.9355784e-05, Final residual = 2.1440008e-06, No Iterations 2
smoothSolver:  Solving for Uz, Initial residual = 0.00017705279, Final residual = 5.9244426e-06, No Iterations 2
GAMG:  Solving for p, Initial residual = 0.00027070886, Final residual = 2.4374074e-06, No Iterations 3
GAMG:  Solving for p, Initial residual = 2.3559219e-05, Final residual = 2.2418519e-07, No Iterations 4
GAMG:  Solving for p, Initial residual = 3.7452597e-06, Final residual = 1.798072e-08, No Iterations 5
GAMG:  Solving for p, Initial residual = 8.4967265e-07, Final residual = 9.2564238e-09, No Iterations 3
GAMG:  Solving for p, Initial residual = 2.1756198e-07, Final residual = 6.9978865e-09, No Iterations 2
GAMG:  Solving for p, Initial residual = 6.6840753e-08, Final residual = 6.9907376e-09, No Iterations 1
time step continuity errors : sum local = 8.4648712e-10, global = -4.2385047e-11, cumulative = -2.8912935e-08
smoothSolver:  Solving for omega, Initial residual = 0.00013755444, Final residual = 7.2146341e-06, No Iterations 3
smoothSolver:  Solving for k, Initial residual = 0.0010164004, Final residual = 5.0794358e-05, No Iterations 3
ExecutionTime = 881.807 s  ClockTime = 882 s

forces forces write:
    Sum of forces
        Total    : (0.079703841 3.7406268 -0.065404612)
        Pressure : (0.07822984 3.7244701 -0.06810484)
        Viscous  : (0.001474001 0.016156607 0.0027002275)
    Sum of moments
        Total    : (-2.373044 0.062136301 0.57343871)
        Pressure : (-2.361648 0.068625822 0.5258755)
        Viscous  : (-0.01139602 -0.0064895217 0.04756321)


Time = 283

smoothSolver:  Solving for Ux, Initial residual = 6.748797e-05, Final residual = 2.0617123e-06, No Iterations 2
smoothSolver:  Solving for Uy, Initial residual = 5.8609953e-05, Final residual = 2.1166964e-06, No Iterations 2
smoothSolver:  Solving for Uz, Initial residual = 0.00017478231, Final residual = 5.8459813e-06, No Iterations 2
GAMG:  Solving for p, Initial residual = 0.00026727114, Final residual = 2.3947619e-06, No Iterations 3
GAMG:  Solving for p, Initial residual = 2.3218245e-05, Final residual = 2.1971607e-07, No Iterations 4
GAMG:  Solving for p, Initial residual = 3.7046546e-06, Final residual = 1.7651638e-08, No Iterations 5
GAMG:  Solving for p, Initial residual = 8.4062475e-07, Final residual = 9.0960581e-09, No Iterations 3
GAMG:  Solving for p, Initial residual = 2.1527697e-07, Final residual = 6.8703083e-09, No Iterations 2
GAMG:  Solving for p, Initial residual = 6.5906501e-08, Final residual = 6.839865e-09, No Iterations 1
time step continuity errors : sum local = 8.2734816e-10, global = -4.1128668e-11, cumulative = -2.8954063e-08
smoothSolver:  Solving for omega, Initial residual = 0.00013634886, Final residual = 7.1529279e-06, No Iterations 3
smoothSolver:  Solving for k, Initial residual = 0.00099816934, Final residual = 4.9840514e-05, No Iterations 3
ExecutionTime = 884.218 s  ClockTime = 885 s


SIMPLE solution converged in 283 iterations

forces forces write:
    Sum of forces
        Total    : (0.07972346 3.7406931 -0.065378958)
        Pressure : (0.078236171 3.7245058 -0.068092588)
        Viscous  : (0.0014872886 0.016187228 0.0027136297)
    Sum of moments
        Total    : (-2.3730616 0.06212904 0.57349549)
        Pressure : (-2.3616524 0.068610261 0.52589282)
        Viscous  : (-0.011409213 -0.0064812213 0.04760267)


End

Finalising parallel run
