/*---------------------------------------------------------------------------*\
| =========                 |                                                 |
| \\      /  F ield         | OpenFOAM: The Open Source CFD Toolbox           |
|  \\    /   O peration     | Version:  v2012                                 |
|   \\  /    A nd           | Website:  www.openfoam.com                      |
|    \\/     M anipulation  |                                                 |
\*---------------------------------------------------------------------------*/
Build  : 79e353b84e-20201222 OPENFOAM=2012
Arch   : "LSB;label=32;scalar=64"
Exec   : simpleFoam -parallel
Date   : Apr 17 2022
Time   : 22:27:14
Host   : DESKTOP-OGTHBU9
PID    : 7016
I/O    : uncollated
Case   : C:/Users/ZEEMAR~1/AppData/Local/Temp/case
nProcs : 4
Hosts  :
(
    (DESKTOP-OGTHBU9 4)
)
Pstream initialized with:
    floatTransfer      : 0
    nProcsSimpleSum    : 0
    commsType          : nonBlocking
    polling iterations : 0
trapFpe: Floating point exception trapping enabled (FOAM_SIGFPE).
fileModificationChecking : Monitoring run-time modified files using timeStampMaster (fileModificationSkew 5, maxFileModificationPolls 20)
allowSystemOperations : Allowing user-supplied system call operations

// * * * * * * * * * * * * * * * * * * * * * * * * * * * * * * * * * * * * * //
Create time

Create mesh for time = 0


SIMPLE: convergence criteria
    field p	 tolerance 0.001
    field U	 tolerance 0.001
    field "(k|epsilon|omega|f|v2|nuTilda)"	 tolerance 0.001

Reading field p

Reading field U

Reading/calculating face flux field phi

Selecting incompressible transport model Newtonian
Selecting turbulence model type RAS
Selecting RAS turbulence model kOmegaSST
Selecting patchDistMethod meshWave
RAS
{
    RASModel        kOmegaSST;
    turbulence      on;
    printCoeffs     on;
    alphaK1         0.85;
    alphaK2         1;
    alphaOmega1     0.5;
    alphaOmega2     0.856;
    gamma1          0.55555556;
    gamma2          0.44;
    beta1           0.075;
    beta2           0.0828;
    betaStar        0.09;
    a1              0.31;
    b1              1;
    c1              10;
    F3              false;
    decayControl    false;
    kInf            0;
    omegaInf        0;
}

No MRF models present

No finite volume options present

Starting time loop

forces forces:
    rho: rhoInf
    Freestream density (rhoInf) set to 1
    Not including porosity effects
    Fields will be written

Time = 1

smoothSolver:  Solving for Ux, Initial residual = 0.019281305, Final residual = 0.00043318262, No Iterations 2
smoothSolver:  Solving for Uy, Initial residual = 0.066119284, Final residual = 0.0012818983, No Iterations 2
smoothSolver:  Solving for Uz, Initial residual = 0.070520983, Final residual = 0.0062630917, No Iterations 1
GAMG:  Solving for p, Initial residual = 0.56324121, Final residual = 0.0028551763, No Iterations 4
GAMG:  Solving for p, Initial residual = 0.025832033, Final residual = 0.00019267392, No Iterations 4
GAMG:  Solving for p, Initial residual = 0.0027235681, Final residual = 1.567873e-05, No Iterations 5
GAMG:  Solving for p, Initial residual = 0.00052081322, Final residual = 4.5634507e-06, No Iterations 4
GAMG:  Solving for p, Initial residual = 0.00013825754, Final residual = 8.3768741e-07, No Iterations 5
GAMG:  Solving for p, Initial residual = 4.069711e-05, Final residual = 3.4624857e-07, No Iterations 4
time step continuity errors : sum local = 1.1877828e-07, global = 9.0128116e-11, cumulative = 9.0128116e-11
smoothSolver:  Solving for omega, Initial residual = 1, Final residual = 0.060128952, No Iterations 3
smoothSolver:  Solving for k, Initial residual = 1, Final residual = 0.085175328, No Iterations 2
ExecutionTime = 8.886 s  ClockTime = 8 s

forces forces write:
    Sum of forces
        Total    : (0.071126973 3.1564436 -0.099112438)
        Pressure : (0.07089863 3.1541232 -0.098606109)
        Viscous  : (0.00022834392 0.002320477 -0.0005063291)
    Sum of moments
        Total    : (-2.0087383 0.093037509 0.45767574)
        Pressure : (-2.0074856 0.092951559 0.45683894)
        Viscous  : (-0.001252692 8.5949398e-05 0.00083680093)


Time = 2

smoothSolver:  Solving for Ux, Initial residual = 0.0092413356, Final residual = 0.00016376065, No Iterations 2
smoothSolver:  Solving for Uy, Initial residual = 0.026027412, Final residual = 0.0026006937, No Iterations 1
smoothSolver:  Solving for Uz, Initial residual = 0.035802943, Final residual = 0.0031502382, No Iterations 1
GAMG:  Solving for p, Initial residual = 0.43327773, Final residual = 0.0025434726, No Iterations 4
GAMG:  Solving for p, Initial residual = 0.02121849, Final residual = 0.0001627797, No Iterations 4
GAMG:  Solving for p, Initial residual = 0.0023189107, Final residual = 1.3823632e-05, No Iterations 5
GAMG:  Solving for p, Initial residual = 0.0004586627, Final residual = 3.9821936e-06, No Iterations 4
GAMG:  Solving for p, Initial residual = 0.00012347838, Final residual = 6.8039625e-07, No Iterations 5
GAMG:  Solving for p, Initial residual = 3.6754404e-05, Final residual = 2.8815026e-07, No Iterations 4
time step continuity errors : sum local = 1.1585636e-07, global = 3.9298443e-09, cumulative = 4.0199724e-09
smoothSolver:  Solving for omega, Initial residual = 0.52454837, Final residual = 0.032261218, No Iterations 3
smoothSolver:  Solving for k, Initial residual = 0.22168448, Final residual = 0.019043336, No Iterations 2
ExecutionTime = 13.419 s  ClockTime = 13 s

forces forces write:
    Sum of forces
        Total    : (0.066960563 4.3447766 -0.15613529)
        Pressure : (0.0666211 4.3408085 -0.15537577)
        Viscous  : (0.00033946312 0.0039680911 -0.00075951725)
    Sum of moments
        Total    : (-2.7712675 0.10546612 0.5701217)
        Pressure : (-2.7691246 0.10529246 0.56907003)
        Viscous  : (-0.0021429244 0.00017365531 0.0010516754)


Time = 3

smoothSolver:  Solving for Ux, Initial residual = 0.0096512196, Final residual = 0.00020178192, No Iterations 2
smoothSolver:  Solving for Uy, Initial residual = 0.022326028, Final residual = 0.00054022204, No Iterations 2
smoothSolver:  Solving for Uz, Initial residual = 0.026153868, Final residual = 0.00048203533, No Iterations 2
GAMG:  Solving for p, Initial residual = 0.23928952, Final residual = 0.0010175693, No Iterations 4
GAMG:  Solving for p, Initial residual = 0.013311038, Final residual = 9.276052e-05, No Iterations 4
GAMG:  Solving for p, Initial residual = 0.001707698, Final residual = 8.1128171e-06, No Iterations 5
GAMG:  Solving for p, Initial residual = 0.00037650707, Final residual = 2.7008652e-06, No Iterations 4
GAMG:  Solving for p, Initial residual = 9.9698626e-05, Final residual = 9.0644823e-07, No Iterations 4
GAMG:  Solving for p, Initial residual = 3.0408577e-05, Final residual = 2.8252301e-07, No Iterations 4
time step continuity errors : sum local = 9.1328808e-08, global = 7.8437928e-09, cumulative = 1.1863765e-08
smoothSolver:  Solving for omega, Initial residual = 0.38427695, Final residual = 0.024798507, No Iterations 3
smoothSolver:  Solving for k, Initial residual = 0.12082966, Final residual = 0.0060192281, No Iterations 3
ExecutionTime = 18.111 s  ClockTime = 18 s

forces forces write:
    Sum of forces
        Total    : (0.054980254 4.6800474 -0.18047931)
        Pressure : (0.054330254 4.6758278 -0.17976429)
        Viscous  : (0.0006500005 0.0042195926 -0.00071501662)
    Sum of moments
        Total    : (-2.9838472 0.10445422 0.58587435)
        Pressure : (-2.9816118 0.10412978 0.58468739)
        Viscous  : (-0.0022353809 0.00032443891 0.0011869518)


Time = 4

smoothSolver:  Solving for Ux, Initial residual = 0.010441967, Final residual = 0.00025478643, No Iterations 2
smoothSolver:  Solving for Uy, Initial residual = 0.023727146, Final residual = 0.00069906756, No Iterations 2
smoothSolver:  Solving for Uz, Initial residual = 0.02461539, Final residual = 0.00057520578, No Iterations 2
GAMG:  Solving for p, Initial residual = 0.23186414, Final residual = 0.001047035, No Iterations 4
GAMG:  Solving for p, Initial residual = 0.018567533, Final residual = 0.00012790173, No Iterations 4
GAMG:  Solving for p, Initial residual = 0.0021112082, Final residual = 1.959686e-05, No Iterations 4
GAMG:  Solving for p, Initial residual = 0.00038128318, Final residual = 2.1624478e-06, No Iterations 5
GAMG:  Solving for p, Initial residual = 8.6207366e-05, Final residual = 6.3699793e-07, No Iterations 4
GAMG:  Solving for p, Initial residual = 2.1805709e-05, Final residual = 1.869447e-07, No Iterations 4
time step continuity errors : sum local = 4.4264742e-08, global = 1.0314501e-10, cumulative = 1.196691e-08
smoothSolver:  Solving for omega, Initial residual = 0.29720604, Final residual = 0.019493218, No Iterations 3
smoothSolver:  Solving for k, Initial residual = 0.082227596, Final residual = 0.0045500738, No Iterations 3
ExecutionTime = 22.656 s  ClockTime = 22 s

forces forces write:
    Sum of forces
        Total    : (0.017441857 4.1829617 -0.17361215)
        Pressure : (0.016577995 4.1792756 -0.17306057)
        Viscous  : (0.00086386255 0.0036861474 -0.00055157526)
    Sum of moments
        Total    : (-2.65994 0.08046086 0.4931316)
        Pressure : (-2.6580455 0.080063694 0.49188399)
        Viscous  : (-0.001894546 0.00039716659 0.0012476125)


Time = 5

smoothSolver:  Solving for Ux, Initial residual = 0.0065440135, Final residual = 0.00014548075, No Iterations 2
smoothSolver:  Solving for Uy, Initial residual = 0.013476029, Final residual = 0.00037044038, No Iterations 2
smoothSolver:  Solving for Uz, Initial residual = 0.017587221, Final residual = 0.00039834409, No Iterations 2
GAMG:  Solving for p, Initial residual = 0.25086147, Final residual = 0.001462277, No Iterations 4
GAMG:  Solving for p, Initial residual = 0.023934903, Final residual = 0.00016450905, No Iterations 4
GAMG:  Solving for p, Initial residual = 0.0026160427, Final residual = 1.4316469e-05, No Iterations 5
GAMG:  Solving for p, Initial residual = 0.00046510741, Final residual = 3.640891e-06, No Iterations 4
GAMG:  Solving for p, Initial residual = 0.0001080705, Final residual = 1.0760148e-06, No Iterations 4
GAMG:  Solving for p, Initial residual = 2.8423382e-05, Final residual = 1.7256368e-07, No Iterations 5
time step continuity errors : sum local = 3.7173338e-08, global = -4.8598749e-11, cumulative = 1.1918311e-08
smoothSolver:  Solving for omega, Initial residual = 0.24006225, Final residual = 0.01588333, No Iterations 3
smoothSolver:  Solving for k, Initial residual = 0.062140968, Final residual = 0.0036331483, No Iterations 3
ExecutionTime = 27.35 s  ClockTime = 27 s

forces forces write:
    Sum of forces
        Total    : (-0.01986728 3.4799835 -0.15420451)
        Pressure : (-0.020891084 3.4769658 -0.15382472)
        Viscous  : (0.0010238048 0.0030176318 -0.00037978255)
    Sum of moments
        Total    : (-2.2050376 0.053645038 0.38648779)
        Pressure : (-2.2035502 0.053199093 0.38521923)
        Viscous  : (-0.0014873751 0.00044594467 0.0012685613)


Time = 6

smoothSolver:  Solving for Ux, Initial residual = 0.0046128184, Final residual = 0.000103694, No Iterations 2
smoothSolver:  Solving for Uy, Initial residual = 0.0095548589, Final residual = 0.00024002491, No Iterations 2
smoothSolver:  Solving for Uz, Initial residual = 0.01520454, Final residual = 0.00035257877, No Iterations 2
GAMG:  Solving for p, Initial residual = 0.20471715, Final residual = 0.0010169181, No Iterations 4
GAMG:  Solving for p, Initial residual = 0.017435845, Final residual = 0.00010877626, No Iterations 4
GAMG:  Solving for p, Initial residual = 0.0020802557, Final residual = 1.9298423e-05, No Iterations 4
GAMG:  Solving for p, Initial residual = 0.00040680825, Final residual = 3.723421e-06, No Iterations 4
GAMG:  Solving for p, Initial residual = 9.5716563e-05, Final residual = 5.108014e-07, No Iterations 5
GAMG:  Solving for p, Initial residual = 2.5389739e-05, Final residual = 1.7862772e-07, No Iterations 4
time step continuity errors : sum local = 3.7558847e-08, global = -1.347298e-09, cumulative = 1.0571014e-08
smoothSolver:  Solving for omega, Initial residual = 0.20014296, Final residual = 0.013311036, No Iterations 3
smoothSolver:  Solving for k, Initial residual = 0.050031484, Final residual = 0.0030144112, No Iterations 3
ExecutionTime = 31.911 s  ClockTime = 31 s

forces forces write:
    Sum of forces
        Total    : (-0.022269951 3.137318 -0.13778908)
        Pressure : (-0.023456336 3.134724 -0.13753204)
        Viscous  : (0.0011863854 0.0025940473 -0.00025703867)
    Sum of moments
        Total    : (-1.9852724 0.047955122 0.3575753)
        Pressure : (-1.9840402 0.047437038 0.35629551)
        Viscous  : (-0.0012321521 0.00051808375 0.0012797966)


Time = 7

smoothSolver:  Solving for Ux, Initial residual = 0.0055047945, Final residual = 0.00015097318, No Iterations 2
smoothSolver:  Solving for Uy, Initial residual = 0.013709048, Final residual = 0.00041303416, No Iterations 2
smoothSolver:  Solving for Uz, Initial residual = 0.017060918, Final residual = 0.00045533853, No Iterations 2
GAMG:  Solving for p, Initial residual = 0.18656233, Final residual = 0.00060889711, No Iterations 4
GAMG:  Solving for p, Initial residual = 0.012509262, Final residual = 5.6586835e-05, No Iterations 4
GAMG:  Solving for p, Initial residual = 0.0013121759, Final residual = 1.0608197e-05, No Iterations 4
GAMG:  Solving for p, Initial residual = 0.00024869805, Final residual = 2.4293979e-06, No Iterations 4
GAMG:  Solving for p, Initial residual = 5.644252e-05, Final residual = 3.4661135e-07, No Iterations 5
GAMG:  Solving for p, Initial residual = 1.4636862e-05, Final residual = 1.0622858e-07, No Iterations 4
time step continuity errors : sum local = 2.3716862e-08, global = -9.1001953e-10, cumulative = 9.660994e-09
smoothSolver:  Solving for omega, Initial residual = 0.17076293, Final residual = 0.011395191, No Iterations 3
smoothSolver:  Solving for k, Initial residual = 0.041956718, Final residual = 0.0025714199, No Iterations 3
ExecutionTime = 36.332 s  ClockTime = 36 s

forces forces write:
    Sum of forces
        Total    : (0.0154101 3.2822252 -0.13016286)
        Pressure : (0.014047427 3.2797734 -0.12997214)
        Viscous  : (0.0013626724 0.002451814 -0.00019071827)
    Sum of moments
        Total    : (-2.0816623 0.067785422 0.41890142)
        Pressure : (-2.0805163 0.067170489 0.41759555)
        Viscous  : (-0.0011459934 0.00061493263 0.0013058744)


Time = 8

smoothSolver:  Solving for Ux, Initial residual = 0.0045005695, Final residual = 0.00011676507, No Iterations 2
smoothSolver:  Solving for Uy, Initial residual = 0.0097687005, Final residual = 0.00029378614, No Iterations 2
smoothSolver:  Solving for Uz, Initial residual = 0.01416634, Final residual = 0.00037845296, No Iterations 2
GAMG:  Solving for p, Initial residual = 0.18834269, Final residual = 0.0010234419, No Iterations 4
GAMG:  Solving for p, Initial residual = 0.013730455, Final residual = 9.4164289e-05, No Iterations 4
GAMG:  Solving for p, Initial residual = 0.0013977911, Final residual = 7.6716699e-06, No Iterations 5
GAMG:  Solving for p, Initial residual = 0.00026392975, Final residual = 1.9869979e-06, No Iterations 4
GAMG:  Solving for p, Initial residual = 6.1568202e-05, Final residual = 5.384147e-07, No Iterations 4
GAMG:  Solving for p, Initial residual = 1.6145702e-05, Final residual = 1.5089418e-07, No Iterations 4
time step continuity errors : sum local = 3.7245005e-08, global = -1.1321849e-10, cumulative = 9.5477755e-09
smoothSolver:  Solving for omega, Initial residual = 0.1482729, Final residual = 0.009918122, No Iterations 3
smoothSolver:  Solving for k, Initial residual = 0.036175867, Final residual = 0.0022394382, No Iterations 3
ExecutionTime = 40.832 s  ClockTime = 40 s

forces forces write:
    Sum of forces
        Total    : (0.062749499 3.6561452 -0.13011011)
        Pressure : (0.061226443 3.6536603 -0.12994905)
        Viscous  : (0.0015230555 0.0024849708 -0.00016106151)
    Sum of moments
        Total    : (-2.3248873 0.095076052 0.50628171)
        Pressure : (-2.3237199 0.094365808 0.50491937)
        Viscous  : (-0.0011673614 0.00071024436 0.0013623394)


Time = 9

smoothSolver:  Solving for Ux, Initial residual = 0.0033051672, Final residual = 7.4096158e-05, No Iterations 2
smoothSolver:  Solving for Uy, Initial residual = 0.0052175675, Final residual = 0.00014254718, No Iterations 2
smoothSolver:  Solving for Uz, Initial residual = 0.010770757, Final residual = 0.0002715848, No Iterations 2
GAMG:  Solving for p, Initial residual = 0.15065105, Final residual = 0.00075529817, No Iterations 4
GAMG:  Solving for p, Initial residual = 0.011355936, Final residual = 6.6100208e-05, No Iterations 4
GAMG:  Solving for p, Initial residual = 0.0012007323, Final residual = 1.0695098e-05, No Iterations 4
GAMG:  Solving for p, Initial residual = 0.00024059101, Final residual = 1.8391926e-06, No Iterations 4
GAMG:  Solving for p, Initial residual = 5.5079427e-05, Final residual = 4.2999738e-07, No Iterations 4
GAMG:  Solving for p, Initial residual = 1.462598e-05, Final residual = 1.139417e-07, No Iterations 4
time step continuity errors : sum local = 2.7854245e-08, global = 6.2448247e-10, cumulative = 1.0172258e-08
smoothSolver:  Solving for omega, Initial residual = 0.1305184, Final residual = 0.0087468336, No Iterations 3
smoothSolver:  Solving for k, Initial residual = 0.031827045, Final residual = 0.0019823931, No Iterations 3
ExecutionTime = 45.122 s  ClockTime = 45 s

forces forces write:
    Sum of forces
        Total    : (0.08360112 3.9221442 -0.13439329)
        Pressure : (0.081965054 3.9195566 -0.13425227)
        Viscous  : (0.001636066 0.0025875703 -0.0001410149)
    Sum of moments
        Total    : (-2.4959565 0.10819192 0.54609832)
        Pressure : (-2.4947206 0.10741211 0.54465351)
        Viscous  : (-0.0012358416 0.00077980676 0.0014448152)


Time = 10

smoothSolver:  Solving for Ux, Initial residual = 0.0038308212, Final residual = 9.8188398e-05, No Iterations 2
smoothSolver:  Solving for Uy, Initial residual = 0.0073663199, Final residual = 0.00022442045, No Iterations 2
smoothSolver:  Solving for Uz, Initial residual = 0.01105357, Final residual = 0.00029211244, No Iterations 2
GAMG:  Solving for p, Initial residual = 0.12397863, Final residual = 0.0011785417, No Iterations 3
GAMG:  Solving for p, Initial residual = 0.0091325506, Final residual = 8.9667819e-05, No Iterations 3
GAMG:  Solving for p, Initial residual = 0.00099859632, Final residual = 5.6623733e-06, No Iterations 5
GAMG:  Solving for p, Initial residual = 0.00017976335, Final residual = 1.2655767e-06, No Iterations 4
GAMG:  Solving for p, Initial residual = 4.199934e-05, Final residual = 3.1212537e-07, No Iterations 4
GAMG:  Solving for p, Initial residual = 1.0919781e-05, Final residual = 8.3591711e-08, No Iterations 4
time step continuity errors : sum local = 1.8755689e-08, global = 8.3189722e-10, cumulative = 1.1004155e-08
smoothSolver:  Solving for omega, Initial residual = 0.11617077, Final residual = 0.0077973385, No Iterations 3
smoothSolver:  Solving for k, Initial residual = 0.028434649, Final residual = 0.0017781714, No Iterations 3
ExecutionTime = 49.311 s  ClockTime = 49 s

forces forces write:
    Sum of forces
        Total    : (0.066856963 3.9264605 -0.13978785)
        Pressure : (0.065157434 3.923773 -0.1396766)
        Viscous  : (0.0016995285 0.0026875862 -0.00011125385)
    Sum of moments
        Total    : (-2.496213 0.099937752 0.51578804)
        Pressure : (-2.494906 0.099120063 0.51425208)
        Viscous  : (-0.001307046 0.00081768944 0.0015359688)


Time = 11

smoothSolver:  Solving for Ux, Initial residual = 0.0034918221, Final residual = 9.1579908e-05, No Iterations 2
smoothSolver:  Solving for Uy, Initial residual = 0.0068122874, Final residual = 0.00020488048, No Iterations 2
smoothSolver:  Solving for Uz, Initial residual = 0.010542757, Final residual = 0.00028324844, No Iterations 2
GAMG:  Solving for p, Initial residual = 0.12487372, Final residual = 0.00056870229, No Iterations 4
GAMG:  Solving for p, Initial residual = 0.009845309, Final residual = 6.4537981e-05, No Iterations 4
GAMG:  Solving for p, Initial residual = 0.0010893662, Final residual = 6.3659672e-06, No Iterations 5
GAMG:  Solving for p, Initial residual = 0.00019293415, Final residual = 1.6065804e-06, No Iterations 4
GAMG:  Solving for p, Initial residual = 4.2313074e-05, Final residual = 2.4608011e-07, No Iterations 5
GAMG:  Solving for p, Initial residual = 1.0354325e-05, Final residual = 7.5199889e-08, No Iterations 4
time step continuity errors : sum local = 1.5973922e-08, global = 4.0253255e-10, cumulative = 1.1406688e-08
smoothSolver:  Solving for omega, Initial residual = 0.10435755, Final residual = 0.0070137208, No Iterations 3
smoothSolver:  Solving for k, Initial residual = 0.025711473, Final residual = 0.0016121919, No Iterations 3
ExecutionTime = 53.912 s  ClockTime = 53 s

forces forces write:
    Sum of forces
        Total    : (0.031275123 3.7498268 -0.14384421)
        Pressure : (0.029527824 3.747067 -0.14377765)
        Viscous  : (0.0017472984 0.0027598134 -6.6555549e-05)
    Sum of moments
        Total    : (-2.3801441 0.080361364 0.45245153)
        Pressure : (-2.3787816 0.079520406 0.45083415)
        Viscous  : (-0.0013625122 0.0008409583 0.0016173797)


Time = 12

smoothSolver:  Solving for Ux, Initial residual = 0.002715746, Final residual = 6.8480151e-05, No Iterations 2
smoothSolver:  Solving for Uy, Initial residual = 0.0042645529, Final residual = 0.00011449249, No Iterations 2
smoothSolver:  Solving for Uz, Initial residual = 0.0094299332, Final residual = 0.00025267154, No Iterations 2
GAMG:  Solving for p, Initial residual = 0.11357115, Final residual = 0.00054757292, No Iterations 4
GAMG:  Solving for p, Initial residual = 0.0097527455, Final residual = 5.8945525e-05, No Iterations 4
GAMG:  Solving for p, Initial residual = 0.0011019354, Final residual = 1.0052916e-05, No Iterations 4
GAMG:  Solving for p, Initial residual = 0.00020869622, Final residual = 2.0380297e-06, No Iterations 4
GAMG:  Solving for p, Initial residual = 4.5397005e-05, Final residual = 2.9730572e-07, No Iterations 5
GAMG:  Solving for p, Initial residual = 1.1172712e-05, Final residual = 9.1545617e-08, No Iterations 4
time step continuity errors : sum local = 1.8964696e-08, global = 1.5015497e-11, cumulative = 1.1421703e-08
smoothSolver:  Solving for omega, Initial residual = 0.094480441, Final residual = 0.0063572422, No Iterations 3
smoothSolver:  Solving for k, Initial residual = 0.023477138, Final residual = 0.0014749198, No Iterations 3
ExecutionTime = 58.371 s  ClockTime = 58 s

forces forces write:
    Sum of forces
        Total    : (0.0060054309 3.5749068 -0.14493506)
        Pressure : (0.0041912142 3.5721033 -0.14492505)
        Viscous  : (0.0018142167 0.0028035901 -1.0005395e-05)
    Sum of moments
        Total    : (-2.2673451 0.065784151 0.41149552)
        Pressure : (-2.265947 0.064914081 0.40981647)
        Viscous  : (-0.0013980702 0.00087006986 0.0016790475)


Time = 13

smoothSolver:  Solving for Ux, Initial residual = 0.0027140249, Final residual = 7.1205693e-05, No Iterations 2
smoothSolver:  Solving for Uy, Initial residual = 0.0047599729, Final residual = 0.0001372665, No Iterations 2
smoothSolver:  Solving for Uz, Initial residual = 0.0097023083, Final residual = 0.00026733221, No Iterations 2
GAMG:  Solving for p, Initial residual = 0.097408206, Final residual = 0.00030909711, No Iterations 4
GAMG:  Solving for p, Initial residual = 0.0070925489, Final residual = 6.5405888e-05, No Iterations 3
GAMG:  Solving for p, Initial residual = 0.00082167752, Final residual = 7.9812483e-06, No Iterations 4
GAMG:  Solving for p, Initial residual = 0.00016249515, Final residual = 1.2852954e-06, No Iterations 4
GAMG:  Solving for p, Initial residual = 3.5920294e-05, Final residual = 2.6075778e-07, No Iterations 4
GAMG:  Solving for p, Initial residual = 9.4700543e-06, Final residual = 5.7511005e-08, No Iterations 4
time step continuity errors : sum local = 1.1956869e-08, global = -8.5851504e-10, cumulative = 1.0563188e-08
smoothSolver:  Solving for omega, Initial residual = 0.086114832, Final residual = 0.0058003304, No Iterations 3
smoothSolver:  Solving for k, Initial residual = 0.021610124, Final residual = 0.0013594853, No Iterations 3
ExecutionTime = 62.641 s  ClockTime = 62 s

forces forces write:
    Sum of forces
        Total    : (0.0066445401 3.524208 -0.14283884)
        Pressure : (0.0047336174 3.5213864 -0.14288926)
        Viscous  : (0.0019109227 0.0028216272 5.0420086e-05)
    Sum of moments
        Total    : (-2.2368091 0.065192306 0.41926533)
        Pressure : (-2.2353964 0.064278052 0.41754692)
        Viscous  : (-0.0014126733 0.00091425456 0.0017184035)


Time = 14

smoothSolver:  Solving for Ux, Initial residual = 0.0027081204, Final residual = 7.2510924e-05, No Iterations 2
smoothSolver:  Solving for Uy, Initial residual = 0.0047825199, Final residual = 0.00014263544, No Iterations 2
smoothSolver:  Solving for Uz, Initial residual = 0.0095904292, Final residual = 0.00027024311, No Iterations 2
GAMG:  Solving for p, Initial residual = 0.095022164, Final residual = 0.00033997732, No Iterations 4
GAMG:  Solving for p, Initial residual = 0.006075097, Final residual = 3.110807e-05, No Iterations 4
GAMG:  Solving for p, Initial residual = 0.00061510648, Final residual = 6.0101836e-06, No Iterations 4
GAMG:  Solving for p, Initial residual = 0.00011683569, Final residual = 7.1456203e-07, No Iterations 5
GAMG:  Solving for p, Initial residual = 2.5832685e-05, Final residual = 2.0131967e-07, No Iterations 4
GAMG:  Solving for p, Initial residual = 6.7153666e-06, Final residual = 5.7917896e-08, No Iterations 4
time step continuity errors : sum local = 1.2404783e-08, global = -4.8772763e-10, cumulative = 1.0075461e-08
smoothSolver:  Solving for omega, Initial residual = 0.078947958, Final residual = 0.0053225598, No Iterations 3
smoothSolver:  Solving for k, Initial residual = 0.020027146, Final residual = 0.0012611157, No Iterations 3
ExecutionTime = 67.062 s  ClockTime = 67 s

forces forces write:
    Sum of forces
        Total    : (0.026828691 3.593875 -0.13903499)
        Pressure : (0.024809497 3.5910601 -0.13914024)
        Viscous  : (0.0020191937 0.0028149422 0.0001052424)
    Sum of moments
        Total    : (-2.2842207 0.07541618 0.45934768)
        Pressure : (-2.2828144 0.074449927 0.4576106)
        Viscous  : (-0.0014063197 0.00096625254 0.0017370805)


Time = 15

smoothSolver:  Solving for Ux, Initial residual = 0.0024026597, Final residual = 6.2573164e-05, No Iterations 2
smoothSolver:  Solving for Uy, Initial residual = 0.0033868604, Final residual = 9.5739251e-05, No Iterations 2
smoothSolver:  Solving for Uz, Initial residual = 0.008656008, Final residual = 0.00024232166, No Iterations 2
GAMG:  Solving for p, Initial residual = 0.087827707, Final residual = 0.00036609153, No Iterations 4
GAMG:  Solving for p, Initial residual = 0.0062983056, Final residual = 3.4439453e-05, No Iterations 4
GAMG:  Solving for p, Initial residual = 0.00066327455, Final residual = 5.7923179e-06, No Iterations 4
GAMG:  Solving for p, Initial residual = 0.0001298174, Final residual = 1.1846257e-06, No Iterations 4
GAMG:  Solving for p, Initial residual = 2.905104e-05, Final residual = 1.7299931e-07, No Iterations 5
GAMG:  Solving for p, Initial residual = 7.4943494e-06, Final residual = 5.1567062e-08, No Iterations 4
time step continuity errors : sum local = 1.122023e-08, global = -1.6969249e-10, cumulative = 9.9057681e-09
smoothSolver:  Solving for omega, Initial residual = 0.072745432, Final residual = 0.0049084262, No Iterations 3
smoothSolver:  Solving for k, Initial residual = 0.018668182, Final residual = 0.0011762519, No Iterations 3
ExecutionTime = 71.371 s  ClockTime = 71 s

forces forces write:
    Sum of forces
        Total    : (0.04805667 3.6970041 -0.13561307)
        Pressure : (0.045946522 3.6942174 -0.13575504)
        Viscous  : (0.0021101481 0.0027867331 0.00014196569)
    Sum of moments
        Total    : (-2.3517405 0.086557429 0.49467786)
        Pressure : (-2.3503581 0.085547074 0.49293791)
        Viscous  : (-0.0013824085 0.0010103554 0.001739944)


Time = 16

smoothSolver:  Solving for Ux, Initial residual = 0.0022811671, Final residual = 5.9993531e-05, No Iterations 2
smoothSolver:  Solving for Uy, Initial residual = 0.00320721, Final residual = 9.4037281e-05, No Iterations 2
smoothSolver:  Solving for Uz, Initial residual = 0.008073565, Final residual = 0.00022473854, No Iterations 2
GAMG:  Solving for p, Initial residual = 0.075026363, Final residual = 0.00074411408, No Iterations 3
GAMG:  Solving for p, Initial residual = 0.0057914431, Final residual = 3.439873e-05, No Iterations 4
GAMG:  Solving for p, Initial residual = 0.00061485593, Final residual = 4.5151838e-06, No Iterations 4
GAMG:  Solving for p, Initial residual = 0.00012336757, Final residual = 7.6857146e-07, No Iterations 4
GAMG:  Solving for p, Initial residual = 2.7489937e-05, Final residual = 1.6982871e-07, No Iterations 4
GAMG:  Solving for p, Initial residual = 7.4153846e-06, Final residual = 3.8931732e-08, No Iterations 4
time step continuity errors : sum local = 8.3534956e-09, global = 5.4074942e-10, cumulative = 1.0446517e-08
smoothSolver:  Solving for omega, Initial residual = 0.067328442, Final residual = 0.0045462007, No Iterations 3
smoothSolver:  Solving for k, Initial residual = 0.017489025, Final residual = 0.0011022106, No Iterations 3
ExecutionTime = 75.59 s  ClockTime = 75 s

forces forces write:
    Sum of forces
        Total    : (0.055735513 3.7513708 -0.13438517)
        Pressure : (0.053567086 3.7486258 -0.13454341)
        Viscous  : (0.0021684269 0.0027450613 0.00015824494)
    Sum of moments
        Total    : (-2.3860361 0.090737327 0.50015898)
        Pressure : (-2.3846879 0.089700141 0.49842459)
        Viscous  : (-0.0013481778 0.0010371863 0.0017343979)


Time = 17

smoothSolver:  Solving for Ux, Initial residual = 0.0022476357, Final residual = 6.0619006e-05, No Iterations 2
smoothSolver:  Solving for Uy, Initial residual = 0.0033683795, Final residual = 0.00010193081, No Iterations 2
smoothSolver:  Solving for Uz, Initial residual = 0.0078529237, Final residual = 0.00021982666, No Iterations 2
GAMG:  Solving for p, Initial residual = 0.069285014, Final residual = 0.00066994103, No Iterations 3
GAMG:  Solving for p, Initial residual = 0.005017334, Final residual = 2.7976286e-05, No Iterations 4
GAMG:  Solving for p, Initial residual = 0.0005400191, Final residual = 3.0336267e-06, No Iterations 5
GAMG:  Solving for p, Initial residual = 0.00010794695, Final residual = 8.2656626e-07, No Iterations 4
GAMG:  Solving for p, Initial residual = 2.4717934e-05, Final residual = 2.2942074e-07, No Iterations 4
GAMG:  Solving for p, Initial residual = 6.6546271e-06, Final residual = 6.2793926e-08, No Iterations 4
time step continuity errors : sum local = 1.317445e-08, global = 5.6912175e-10, cumulative = 1.1015639e-08
smoothSolver:  Solving for omega, Initial residual = 0.06256083, Final residual = 0.0042268816, No Iterations 3
smoothSolver:  Solving for k, Initial residual = 0.016456406, Final residual = 0.0010370145, No Iterations 3
ExecutionTime = 80.043 s  ClockTime = 80 s

forces forces write:
    Sum of forces
        Total    : (0.048573059 3.7352921 -0.13548299)
        Pressure : (0.046372997 3.7325921 -0.13564421)
        Viscous  : (0.0022000616 0.0027000389 0.00016122149)
    Sum of moments
        Total    : (-2.3742232 0.087148313 0.4787768)
        Pressure : (-2.3729112 0.086099481 0.47704839)
        Viscous  : (-0.0013119059 0.0010488322 0.0017284058)


Time = 18

smoothSolver:  Solving for Ux, Initial residual = 0.0020838646, Final residual = 5.6704848e-05, No Iterations 2
smoothSolver:  Solving for Uy, Initial residual = 0.0027819, Final residual = 8.0614205e-05, No Iterations 2
smoothSolver:  Solving for Uz, Initial residual = 0.0075942014, Final residual = 0.00021496758, No Iterations 2
GAMG:  Solving for p, Initial residual = 0.065500942, Final residual = 0.00022640622, No Iterations 4
GAMG:  Solving for p, Initial residual = 0.004494689, Final residual = 2.4613209e-05, No Iterations 4
GAMG:  Solving for p, Initial residual = 0.00050829934, Final residual = 4.2689743e-06, No Iterations 4
GAMG:  Solving for p, Initial residual = 9.7027158e-05, Final residual = 8.9401485e-07, No Iterations 4
GAMG:  Solving for p, Initial residual = 2.2018082e-05, Final residual = 2.1157117e-07, No Iterations 4
GAMG:  Solving for p, Initial residual = 5.6331208e-06, Final residual = 5.4649147e-08, No Iterations 4
time step continuity errors : sum local = 1.1306492e-08, global = 2.5619472e-10, cumulative = 1.1271834e-08
smoothSolver:  Solving for omega, Initial residual = 0.058336821, Final residual = 0.0039434573, No Iterations 3
smoothSolver:  Solving for k, Initial residual = 0.015544847, Final residual = 0.00097916931, No Iterations 3
ExecutionTime = 84.433 s  ClockTime = 84 s

forces forces write:
    Sum of forces
        Total    : (0.035804629 3.6833857 -0.1376158)
        Pressure : (0.033580128 3.6807261 -0.13777156)
        Viscous  : (0.0022245014 0.0026596819 0.00015576302)
    Sum of moments
        Total    : (-2.3401624 0.080544866 0.45265988)
        Pressure : (-2.3388822 0.07948954 0.45093209)
        Viscous  : (-0.0012801986 0.0010553268 0.0017277966)


Time = 19

smoothSolver:  Solving for Ux, Initial residual = 0.0019729784, Final residual = 5.3449138e-05, No Iterations 2
smoothSolver:  Solving for Uy, Initial residual = 0.0024287549, Final residual = 6.8145505e-05, No Iterations 2
smoothSolver:  Solving for Uz, Initial residual = 0.0074973394, Final residual = 0.00021613997, No Iterations 2
GAMG:  Solving for p, Initial residual = 0.059214667, Final residual = 0.00054563711, No Iterations 3
GAMG:  Solving for p, Initial residual = 0.0043925417, Final residual = 2.8094078e-05, No Iterations 4
GAMG:  Solving for p, Initial residual = 0.00048803076, Final residual = 3.6356313e-06, No Iterations 4
GAMG:  Solving for p, Initial residual = 9.4757871e-05, Final residual = 5.729963e-07, No Iterations 4
GAMG:  Solving for p, Initial residual = 2.0794859e-05, Final residual = 1.3214633e-07, No Iterations 4
GAMG:  Solving for p, Initial residual = 5.3602475e-06, Final residual = 3.3790942e-08, No Iterations 4
time step continuity errors : sum local = 6.9561795e-09, global = -1.2053059e-10, cumulative = 1.1151303e-08
smoothSolver:  Solving for omega, Initial residual = 0.05457193, Final residual = 0.0036903763, No Iterations 3
smoothSolver:  Solving for k, Initial residual = 0.014734795, Final residual = 0.00092750991, No Iterations 3
ExecutionTime = 88.783 s  ClockTime = 88 s

forces forces write:
    Sum of forces
        Total    : (0.027836424 3.6441886 -0.13918234)
        Pressure : (0.025578141 3.6415604 -0.1393291)
        Viscous  : (0.0022582831 0.0026282382 0.00014675989)
    Sum of moments
        Total    : (-2.3158068 0.07630704 0.44199981)
        Pressure : (-2.314551 0.075241214 0.44026552)
        Viscous  : (-0.0012558254 0.0010658261 0.0017342904)


Time = 20

smoothSolver:  Solving for Ux, Initial residual = 0.0019271643, Final residual = 5.2056514e-05, No Iterations 2
smoothSolver:  Solving for Uy, Initial residual = 0.0024806889, Final residual = 7.1936935e-05, No Iterations 2
smoothSolver:  Solving for Uz, Initial residual = 0.0074487918, Final residual = 0.00021801854, No Iterations 2
GAMG:  Solving for p, Initial residual = 0.054803814, Final residual = 0.00049837753, No Iterations 3
GAMG:  Solving for p, Initial residual = 0.003825251, Final residual = 1.7530994e-05, No Iterations 4
GAMG:  Solving for p, Initial residual = 0.0004111643, Final residual = 2.6362145e-06, No Iterations 4
GAMG:  Solving for p, Initial residual = 8.3757103e-05, Final residual = 5.3199731e-07, No Iterations 4
GAMG:  Solving for p, Initial residual = 1.8848194e-05, Final residual = 1.3522978e-07, No Iterations 4
GAMG:  Solving for p, Initial residual = 4.979726e-06, Final residual = 3.3736574e-08, No Iterations 4
time step continuity errors : sum local = 6.9751141e-09, global = -3.5257559e-10, cumulative = 1.0798728e-08
smoothSolver:  Solving for omega, Initial residual = 0.051197389, Final residual = 0.0034631734, No Iterations 3
smoothSolver:  Solving for k, Initial residual = 0.014009946, Final residual = 0.00088107609, No Iterations 3
ExecutionTime = 93.182 s  ClockTime = 93 s

forces forces write:
    Sum of forces
        Total    : (0.028790504 3.6417004 -0.13929282)
        Pressure : (0.02648512 3.6390927 -0.13943252)
        Viscous  : (0.0023053838 0.0026076736 0.00013970446)
    Sum of moments
        Total    : (-2.316038 0.076568624 0.450691)
        Pressure : (-2.3147992 0.075485305 0.44894454)
        Viscous  : (-0.001238805 0.0010833184 0.0017464609)


Time = 21

smoothSolver:  Solving for Ux, Initial residual = 0.0018739979, Final residual = 5.0593898e-05, No Iterations 2
smoothSolver:  Solving for Uy, Initial residual = 0.0022460645, Final residual = 6.4736976e-05, No Iterations 2
smoothSolver:  Solving for Uz, Initial residual = 0.0072115569, Final residual = 0.00021346348, No Iterations 2
GAMG:  Solving for p, Initial residual = 0.051573693, Final residual = 0.00050058245, No Iterations 3
GAMG:  Solving for p, Initial residual = 0.0034683947, Final residual = 2.305437e-05, No Iterations 4
GAMG:  Solving for p, Initial residual = 0.00036961661, Final residual = 2.2355957e-06, No Iterations 5
GAMG:  Solving for p, Initial residual = 7.3369534e-05, Final residual = 5.4566482e-07, No Iterations 4
GAMG:  Solving for p, Initial residual = 1.7023111e-05, Final residual = 1.4180446e-07, No Iterations 4
GAMG:  Solving for p, Initial residual = 4.5367215e-06, Final residual = 3.7191744e-08, No Iterations 4
time step continuity errors : sum local = 7.7392294e-09, global = -3.1087117e-10, cumulative = 1.0487857e-08
smoothSolver:  Solving for omega, Initial residual = 0.048157156, Final residual = 0.0032582346, No Iterations 3
smoothSolver:  Solving for k, Initial residual = 0.013358117, Final residual = 0.00083917087, No Iterations 3
ExecutionTime = 97.542 s  ClockTime = 97 s

forces forces write:
    Sum of forces
        Total    : (0.035526267 3.6665665 -0.13807802)
        Pressure : (0.033166435 3.6639686 -0.13821728)
        Viscous  : (0.0023598319 0.0025979088 0.00013926012)
    Sum of moments
        Total    : (-2.3336111 0.079710894 0.46758246)
        Pressure : (-2.3323828 0.078604272 0.46582078)
        Viscous  : (-0.0012282817 0.0011066221 0.0017616775)


Time = 22

smoothSolver:  Solving for Ux, Initial residual = 0.0018099137, Final residual = 4.9185494e-05, No Iterations 2
smoothSolver:  Solving for Uy, Initial residual = 0.001993865, Final residual = 5.7082789e-05, No Iterations 2
smoothSolver:  Solving for Uz, Initial residual = 0.0069256911, Final residual = 0.00020787535, No Iterations 2
GAMG:  Solving for p, Initial residual = 0.047337698, Final residual = 0.00044017823, No Iterations 3
GAMG:  Solving for p, Initial residual = 0.0032120099, Final residual = 2.1017949e-05, No Iterations 4
GAMG:  Solving for p, Initial residual = 0.00035058127, Final residual = 2.9952175e-06, No Iterations 4
GAMG:  Solving for p, Initial residual = 7.1014079e-05, Final residual = 5.9602374e-07, No Iterations 4
GAMG:  Solving for p, Initial residual = 1.6367438e-05, Final residual = 1.4807697e-07, No Iterations 4
GAMG:  Solving for p, Initial residual = 4.3836521e-06, Final residual = 3.9418901e-08, No Iterations 4
time step continuity errors : sum local = 8.1962344e-09, global = -1.4305467e-10, cumulative = 1.0344802e-08
smoothSolver:  Solving for omega, Initial residual = 0.045405667, Final residual = 0.0030725468, No Iterations 3
smoothSolver:  Solving for k, Initial residual = 0.0127688, Final residual = 0.00080118335, No Iterations 3
ExecutionTime = 101.899 s  ClockTime = 101 s

forces forces write:
    Sum of forces
        Total    : (0.041991289 3.6933703 -0.13649922)
        Pressure : (0.039578898 3.6907717 -0.13664625)
        Viscous  : (0.0024123912 0.0025985811 0.0001470299)
    Sum of moments
        Total    : (-2.3513724 0.082717136 0.47847834)
        Pressure : (-2.3501493 0.081585867 0.47670015)
        Viscous  : (-0.0012230692 0.0011312686 0.0017781907)


Time = 23

smoothSolver:  Solving for Ux, Initial residual = 0.0017626673, Final residual = 4.8456068e-05, No Iterations 2
smoothSolver:  Solving for Uy, Initial residual = 0.0019883485, Final residual = 5.8309915e-05, No Iterations 2
smoothSolver:  Solving for Uz, Initial residual = 0.0067377363, Final residual = 0.00020566265, No Iterations 2
GAMG:  Solving for p, Initial residual = 0.04315346, Final residual = 0.00037158663, No Iterations 3
GAMG:  Solving for p, Initial residual = 0.0029318512, Final residual = 1.2170615e-05, No Iterations 4
GAMG:  Solving for p, Initial residual = 0.00033010633, Final residual = 1.6328219e-06, No Iterations 4
GAMG:  Solving for p, Initial residual = 6.8495457e-05, Final residual = 6.0419608e-07, No Iterations 3
GAMG:  Solving for p, Initial residual = 1.5953109e-05, Final residual = 9.7424964e-08, No Iterations 4
GAMG:  Solving for p, Initial residual = 4.2435353e-06, Final residual = 4.1738904e-08, No Iterations 3
time step continuity errors : sum local = 8.6203574e-09, global = 6.2599379e-10, cumulative = 1.0970796e-08
smoothSolver:  Solving for omega, Initial residual = 0.042904789, Final residual = 0.0029036113, No Iterations 3
smoothSolver:  Solving for k, Initial residual = 0.012233732, Final residual = 0.00076662338, No Iterations 3
ExecutionTime = 106.069 s  ClockTime = 106 s

forces forces write:
    Sum of forces
        Total    : (0.044232139 3.7036205 -0.13549424)
        Pressure : (0.041769477 3.7010153 -0.135657)
        Viscous  : (0.0024626622 0.0026052342 0.00016275791)
    Sum of moments
        Total    : (-2.3575888 0.083700764 0.47721334)
        Pressure : (-2.3563688 0.082541348 0.47541685)
        Viscous  : (-0.0012199582 0.0011594155 0.0017964922)


Time = 24

smoothSolver:  Solving for Ux, Initial residual = 0.0017106552, Final residual = 4.7311145e-05, No Iterations 2
smoothSolver:  Solving for Uy, Initial residual = 0.0018574835, Final residual = 5.4945005e-05, No Iterations 2
smoothSolver:  Solving for Uz, Initial residual = 0.0066091689, Final residual = 0.00020573114, No Iterations 2
GAMG:  Solving for p, Initial residual = 0.040464543, Final residual = 0.0003484869, No Iterations 3
GAMG:  Solving for p, Initial residual = 0.0026990446, Final residual = 1.2039424e-05, No Iterations 4
GAMG:  Solving for p, Initial residual = 0.0003039121, Final residual = 2.2326546e-06, No Iterations 4
GAMG:  Solving for p, Initial residual = 6.2390759e-05, Final residual = 5.2602226e-07, No Iterations 4
GAMG:  Solving for p, Initial residual = 1.4433291e-05, Final residual = 1.3585082e-07, No Iterations 4
GAMG:  Solving for p, Initial residual = 3.8256489e-06, Final residual = 3.4484919e-08, No Iterations 4
time step continuity errors : sum local = 7.0729057e-09, global = 2.7727439e-10, cumulative = 1.124807e-08
smoothSolver:  Solving for omega, Initial residual = 0.040622324, Final residual = 0.0027493474, No Iterations 3
smoothSolver:  Solving for k, Initial residual = 0.011746176, Final residual = 0.00073512468, No Iterations 3
ExecutionTime = 110.354 s  ClockTime = 110 s

forces forces write:
    Sum of forces
        Total    : (0.042400168 3.6964064 -0.13538289)
        Pressure : (0.039884146 3.6937953 -0.13556602)
        Viscous  : (0.0025160223 0.0026111442 0.00018312868)
    Sum of moments
        Total    : (-2.3524638 0.082790111 0.46793719)
        Pressure : (-2.3512487 0.081595628 0.46611966)
        Viscous  : (-0.0012150684 0.0011944829 0.001817535)


Time = 25

smoothSolver:  Solving for Ux, Initial residual = 0.0016579972, Final residual = 4.5800716e-05, No Iterations 2
smoothSolver:  Solving for Uy, Initial residual = 0.0016444792, Final residual = 4.8064256e-05, No Iterations 2
smoothSolver:  Solving for Uz, Initial residual = 0.0065377825, Final residual = 0.00020653017, No Iterations 2
GAMG:  Solving for p, Initial residual = 0.037799714, Final residual = 0.00030391234, No Iterations 3
GAMG:  Solving for p, Initial residual = 0.0024585089, Final residual = 1.3189489e-05, No Iterations 4
GAMG:  Solving for p, Initial residual = 0.00027795081, Final residual = 1.867187e-06, No Iterations 4
GAMG:  Solving for p, Initial residual = 5.6642996e-05, Final residual = 3.431894e-07, No Iterations 4
GAMG:  Solving for p, Initial residual = 1.299295e-05, Final residual = 8.6405936e-08, No Iterations 4
GAMG:  Solving for p, Initial residual = 3.4129577e-06, Final residual = 2.4153365e-08, No Iterations 4
time step continuity errors : sum local = 4.9359907e-09, global = -7.6235524e-11, cumulative = 1.1171835e-08
smoothSolver:  Solving for omega, Initial residual = 0.038531805, Final residual = 0.002607985, No Iterations 3
smoothSolver:  Solving for k, Initial residual = 0.011300159, Final residual = 0.00070633034, No Iterations 3
ExecutionTime = 114.664 s  ClockTime = 114 s

forces forces write:
    Sum of forces
        Total    : (0.039353911 3.6833393 -0.13579179)
        Pressure : (0.036773366 3.6807312 -0.13599455)
        Viscous  : (0.0025805453 0.0026081546 0.00020276323)
    Sum of moments
        Total    : (-2.3441584 0.081365616 0.45940564)
        Pressure : (-2.3429547 0.080125348 0.45756382)
        Viscous  : (-0.0012036783 0.0012402682 0.0018418222)


Time = 26

smoothSolver:  Solving for Ux, Initial residual = 0.0016207934, Final residual = 4.4592376e-05, No Iterations 2
smoothSolver:  Solving for Uy, Initial residual = 0.0015919359, Final residual = 4.7556922e-05, No Iterations 2
smoothSolver:  Solving for Uz, Initial residual = 0.006490427, Final residual = 0.00020764464, No Iterations 2
GAMG:  Solving for p, Initial residual = 0.034917432, Final residual = 0.00026926342, No Iterations 3
GAMG:  Solving for p, Initial residual = 0.0022026261, Final residual = 1.0327499e-05, No Iterations 4
GAMG:  Solving for p, Initial residual = 0.0002515647, Final residual = 1.3700071e-06, No Iterations 4
GAMG:  Solving for p, Initial residual = 5.0840973e-05, Final residual = 2.5509391e-07, No Iterations 4
GAMG:  Solving for p, Initial residual = 1.1780982e-05, Final residual = 1.1601276e-07, No Iterations 3
GAMG:  Solving for p, Initial residual = 3.172933e-06, Final residual = 2.3786278e-08, No Iterations 4
time step continuity errors : sum local = 4.8630597e-09, global = -2.268589e-10, cumulative = 1.0944976e-08
smoothSolver:  Solving for omega, Initial residual = 0.036611006, Final residual = 0.0024780454, No Iterations 3
smoothSolver:  Solving for k, Initial residual = 0.010890919, Final residual = 0.00067994291, No Iterations 3
ExecutionTime = 118.904 s  ClockTime = 118 s

forces forces write:
    Sum of forces
        Total    : (0.037882041 3.6764211 -0.13608914)
        Pressure : (0.035216085 3.6738317 -0.13631096)
        Viscous  : (0.0026659561 0.0025893947 0.00022181947)
    Sum of moments
        Total    : (-2.3404914 0.080717654 0.457535)
        Pressure : (-2.3393108 0.07941465 0.45566555)
        Viscous  : (-0.001180505 0.0013030038 0.0018694464)


Time = 27

smoothSolver:  Solving for Ux, Initial residual = 0.001589991, Final residual = 4.36296e-05, No Iterations 2
smoothSolver:  Solving for Uy, Initial residual = 0.0015461041, Final residual = 4.6671278e-05, No Iterations 2
smoothSolver:  Solving for Uz, Initial residual = 0.0063964345, Final residual = 0.00020641973, No Iterations 2
GAMG:  Solving for p, Initial residual = 0.032560451, Final residual = 0.00025097946, No Iterations 3
GAMG:  Solving for p, Initial residual = 0.0020148967, Final residual = 1.0954948e-05, No Iterations 4
GAMG:  Solving for p, Initial residual = 0.00023477663, Final residual = 2.0614716e-06, No Iterations 4
GAMG:  Solving for p, Initial residual = 4.8337663e-05, Final residual = 4.3247868e-07, No Iterations 4
GAMG:  Solving for p, Initial residual = 1.1387442e-05, Final residual = 9.8493584e-08, No Iterations 4
GAMG:  Solving for p, Initial residual = 3.0299953e-06, Final residual = 2.4933297e-08, No Iterations 4
time step continuity errors : sum local = 5.1094826e-09, global = -2.2159644e-10, cumulative = 1.0723379e-08
smoothSolver:  Solving for omega, Initial residual = 0.034840613, Final residual = 0.0023582639, No Iterations 3
smoothSolver:  Solving for k, Initial residual = 0.010513951, Final residual = 0.00065569193, No Iterations 3
ExecutionTime = 123.043 s  ClockTime = 123 s

forces forces write:
    Sum of forces
        Total    : (0.038861364 3.6796601 -0.13583018)
        Pressure : (0.036085217 3.6771089 -0.13607372)
        Viscous  : (0.002776147 0.0025512006 0.00024353057)
    Sum of moments
        Total    : (-2.3435805 0.08119335 0.46206377)
        Pressure : (-2.3424384 0.079808675 0.46016374)
        Viscous  : (-0.0011420868 0.0013846754 0.0019000259)


Time = 28

smoothSolver:  Solving for Ux, Initial residual = 0.0015629351, Final residual = 4.296974e-05, No Iterations 2
smoothSolver:  Solving for Uy, Initial residual = 0.0014613938, Final residual = 4.3727672e-05, No Iterations 2
smoothSolver:  Solving for Uz, Initial residual = 0.0062637242, Final residual = 0.00020318099, No Iterations 2
GAMG:  Solving for p, Initial residual = 0.030566548, Final residual = 0.00023014688, No Iterations 3
GAMG:  Solving for p, Initial residual = 0.0018710319, Final residual = 1.1354808e-05, No Iterations 4
GAMG:  Solving for p, Initial residual = 0.00022177281, Final residual = 2.1349701e-06, No Iterations 4
GAMG:  Solving for p, Initial residual = 4.6530785e-05, Final residual = 2.6176754e-07, No Iterations 5
GAMG:  Solving for p, Initial residual = 1.0897625e-05, Final residual = 7.4114884e-08, No Iterations 4
GAMG:  Solving for p, Initial residual = 2.9487557e-06, Final residual = 2.0847672e-08, No Iterations 4
time step continuity errors : sum local = 4.2782799e-09, global = -1.796338e-10, cumulative = 1.0543745e-08
smoothSolver:  Solving for omega, Initial residual = 0.033204156, Final residual = 0.002247541, No Iterations 3
smoothSolver:  Solving for k, Initial residual = 0.010165889, Final residual = 0.0006333552, No Iterations 3
ExecutionTime = 127.315 s  ClockTime = 127 s

forces forces write:
    Sum of forces
        Total    : (0.041286014 3.6887563 -0.13499006)
        Pressure : (0.038376885 3.6862612 -0.13526209)
        Viscous  : (0.0029091287 0.0024950469 0.00027202932)
    Sum of moments
        Total    : (-2.3500916 0.082278642 0.46839249)
        Pressure : (-2.3490027 0.080795757 0.46645992)
        Viscous  : (-0.0010889658 0.001482885 0.0019325748)


Time = 29

smoothSolver:  Solving for Ux, Initial residual = 0.0015358688, Final residual = 4.2585263e-05, No Iterations 2
smoothSolver:  Solving for Uy, Initial residual = 0.0014031716, Final residual = 4.1743333e-05, No Iterations 2
smoothSolver:  Solving for Uz, Initial residual = 0.0061534834, Final residual = 0.00020002253, No Iterations 2
GAMG:  Solving for p, Initial residual = 0.028520086, Final residual = 0.00019858228, No Iterations 3
GAMG:  Solving for p, Initial residual = 0.0017429901, Final residual = 9.0641601e-06, No Iterations 4
GAMG:  Solving for p, Initial residual = 0.00020851209, Final residual = 1.5876089e-06, No Iterations 4
GAMG:  Solving for p, Initial residual = 4.3997693e-05, Final residual = 3.5301e-07, No Iterations 4
GAMG:  Solving for p, Initial residual = 1.042983e-05, Final residual = 8.9717646e-08, No Iterations 4
GAMG:  Solving for p, Initial residual = 2.8140092e-06, Final residual = 2.3354226e-08, No Iterations 4
time step continuity errors : sum local = 4.7890359e-09, global = -1.2259138e-10, cumulative = 1.0421154e-08
smoothSolver:  Solving for omega, Initial residual = 0.031687446, Final residual = 0.0021449118, No Iterations 3
smoothSolver:  Solving for k, Initial residual = 0.0098438249, Final residual = 0.00061273075, No Iterations 3
ExecutionTime = 131.589 s  ClockTime = 131 s

forces forces write:
    Sum of forces
        Total    : (0.043554931 3.6966941 -0.13390864)
        Pressure : (0.040495926 3.6942732 -0.13421788)
        Viscous  : (0.0030590047 0.0024209249 0.00030923914)
    Sum of moments
        Total    : (-2.3552824 0.083254399 0.4720057)
        Pressure : (-2.3542616 0.08166207 0.47003798)
        Viscous  : (-0.0010208404 0.001592329 0.0019677229)


Time = 30

smoothSolver:  Solving for Ux, Initial residual = 0.0015083809, Final residual = 4.2356135e-05, No Iterations 2
smoothSolver:  Solving for Uy, Initial residual = 0.0013390266, Final residual = 3.9989619e-05, No Iterations 2
smoothSolver:  Solving for Uz, Initial residual = 0.006073264, Final residual = 0.00019796759, No Iterations 2
GAMG:  Solving for p, Initial residual = 0.026668319, Final residual = 0.0001902021, No Iterations 3
GAMG:  Solving for p, Initial residual = 0.0016580605, Final residual = 1.5901831e-05, No Iterations 3
GAMG:  Solving for p, Initial residual = 0.00020780822, Final residual = 1.4636095e-06, No Iterations 4
GAMG:  Solving for p, Initial residual = 4.3822985e-05, Final residual = 2.5298851e-07, No Iterations 4
GAMG:  Solving for p, Initial residual = 1.0231501e-05, Final residual = 6.5525022e-08, No Iterations 4
GAMG:  Solving for p, Initial residual = 2.8390033e-06, Final residual = 1.8352605e-08, No Iterations 4
time step continuity errors : sum local = 3.7543874e-09, global = -1.2940697e-11, cumulative = 1.0408213e-08
smoothSolver:  Solving for omega, Initial residual = 0.030278866, Final residual = 0.0020495877, No Iterations 3
smoothSolver:  Solving for k, Initial residual = 0.0095449324, Final residual = 0.00059363489, No Iterations 3
ExecutionTime = 135.688 s  ClockTime = 135 s

forces forces write:
    Sum of forces
        Total    : (0.044733671 3.6993879 -0.13297206)
        Pressure : (0.041508978 3.6970591 -0.13332983)
        Viscous  : (0.0032246927 0.0023287837 0.00035777702)
    Sum of moments
        Total    : (-2.3567282 0.083752385 0.47154093)
        Pressure : (-2.3557889 0.082041363 0.46953473)
        Viscous  : (-0.00093928144 0.0017110224 0.0020061988)


Time = 31

smoothSolver:  Solving for Ux, Initial residual = 0.0014844482, Final residual = 4.204272e-05, No Iterations 2
smoothSolver:  Solving for Uy, Initial residual = 0.0012545633, Final residual = 3.726926e-05, No Iterations 2
smoothSolver:  Solving for Uz, Initial residual = 0.0060057046, Final residual = 0.00019595267, No Iterations 2
GAMG:  Solving for p, Initial residual = 0.025016917, Final residual = 0.00017719443, No Iterations 3
GAMG:  Solving for p, Initial residual = 0.0015755723, Final residual = 1.4021144e-05, No Iterations 3
GAMG:  Solving for p, Initial residual = 0.00020036703, Final residual = 1.0375996e-06, No Iterations 4
GAMG:  Solving for p, Initial residual = 4.2827341e-05, Final residual = 3.6763654e-07, No Iterations 3
GAMG:  Solving for p, Initial residual = 1.0272644e-05, Final residual = 7.3047471e-08, No Iterations 4
GAMG:  Solving for p, Initial residual = 2.8429171e-06, Final residual = 1.9342213e-08, No Iterations 4
time step continuity errors : sum local = 3.947069e-09, global = -1.7013535e-10, cumulative = 1.0238078e-08
smoothSolver:  Solving for omega, Initial residual = 0.028967688, Final residual = 0.0019608485, No Iterations 3
smoothSolver:  Solving for k, Initial residual = 0.0092671256, Final residual = 0.00057592342, No Iterations 3
ExecutionTime = 139.757 s  ClockTime = 139 s

forces forces write:
    Sum of forces
        Total    : (0.044946817 3.69753 -0.13234526)
        Pressure : (0.041542271 3.6953077 -0.13276066)
        Viscous  : (0.0034045464 0.0022223944 0.00041539952)
    Sum of moments
        Total    : (-2.3552487 0.083867016 0.46880226)
        Pressure : (-2.3543998 0.08203148 0.46675419)
        Viscous  : (-0.00084884555 0.0018355368 0.0020480716)


Time = 32

smoothSolver:  Solving for Ux, Initial residual = 0.001464158, Final residual = 4.1665873e-05, No Iterations 2
smoothSolver:  Solving for Uy, Initial residual = 0.0012012161, Final residual = 3.5397553e-05, No Iterations 2
smoothSolver:  Solving for Uz, Initial residual = 0.0059359243, Final residual = 0.00019321889, No Iterations 2
GAMG:  Solving for p, Initial residual = 0.023491569, Final residual = 0.00014937844, No Iterations 3
GAMG:  Solving for p, Initial residual = 0.0014545758, Final residual = 1.2906253e-05, No Iterations 3
GAMG:  Solving for p, Initial residual = 0.00018777376, Final residual = 1.6000802e-06, No Iterations 4
GAMG:  Solving for p, Initial residual = 4.0704231e-05, Final residual = 3.1736894e-07, No Iterations 4
GAMG:  Solving for p, Initial residual = 9.5492839e-06, Final residual = 7.3834092e-08, No Iterations 4
GAMG:  Solving for p, Initial residual = 2.6436158e-06, Final residual = 1.8418881e-08, No Iterations 4
time step continuity errors : sum local = 3.7533568e-09, global = -1.7829498e-10, cumulative = 1.0059783e-08
smoothSolver:  Solving for omega, Initial residual = 0.027744421, Final residual = 0.0018780599, No Iterations 3
smoothSolver:  Solving for k, Initial residual = 0.0090084338, Final residual = 0.00055945222, No Iterations 3
ExecutionTime = 144.018 s  ClockTime = 144 s

forces forces write:
    Sum of forces
        Total    : (0.044951311 3.6945956 -0.13190941)
        Pressure : (0.041342847 3.6924991 -0.13239148)
        Viscous  : (0.0036084636 0.0020965035 0.00048206259)
    Sum of moments
        Total    : (-2.3533306 0.083927257 0.46661304)
        Pressure : (-2.3525838 0.081953899 0.46451765)
        Viscous  : (-0.00074681994 0.0019733587 0.0020953931)


Time = 33

smoothSolver:  Solving for Ux, Initial residual = 0.0014450332, Final residual = 4.1235147e-05, No Iterations 2
smoothSolver:  Solving for Uy, Initial residual = 0.0011752691, Final residual = 3.4520044e-05, No Iterations 2
smoothSolver:  Solving for Uz, Initial residual = 0.0058532571, Final residual = 0.00018959098, No Iterations 2
GAMG:  Solving for p, Initial residual = 0.02213331, Final residual = 0.00014093408, No Iterations 3
GAMG:  Solving for p, Initial residual = 0.0013578469, Final residual = 7.0554773e-06, No Iterations 4
GAMG:  Solving for p, Initial residual = 0.00017164728, Final residual = 1.5183475e-06, No Iterations 4
GAMG:  Solving for p, Initial residual = 3.824144e-05, Final residual = 3.2054854e-07, No Iterations 4
GAMG:  Solving for p, Initial residual = 8.9839844e-06, Final residual = 7.4558698e-08, No Iterations 4
GAMG:  Solving for p, Initial residual = 2.4924321e-06, Final residual = 1.8398714e-08, No Iterations 4
time step continuity errors : sum local = 3.7482886e-09, global = -1.6886237e-10, cumulative = 9.8909207e-09
smoothSolver:  Solving for omega, Initial residual = 0.026601168, Final residual = 0.0018006836, No Iterations 3
smoothSolver:  Solving for k, Initial residual = 0.0087670584, Final residual = 0.00054409645, No Iterations 3
ExecutionTime = 148.478 s  ClockTime = 148 s

forces forces write:
    Sum of forces
        Total    : (0.045418274 3.6935818 -0.13139855)
        Pressure : (0.041583147 3.6916317 -0.13195111)
        Viscous  : (0.0038351268 0.0019501875 0.00055256319)
    Sum of moments
        Total    : (-2.3528887 0.084178251 0.4665734)
        Pressure : (-2.3522545 0.082057107 0.46442518)
        Viscous  : (-0.00063420888 0.0021211443 0.0021482209)


Time = 34

smoothSolver:  Solving for Ux, Initial residual = 0.0014280055, Final residual = 4.0814611e-05, No Iterations 2
smoothSolver:  Solving for Uy, Initial residual = 0.0011466562, Final residual = 3.3540786e-05, No Iterations 2
smoothSolver:  Solving for Uz, Initial residual = 0.0057639946, Final residual = 0.00018542246, No Iterations 2
GAMG:  Solving for p, Initial residual = 0.020955093, Final residual = 0.00013057804, No Iterations 3
GAMG:  Solving for p, Initial residual = 0.0012697641, Final residual = 7.51096e-06, No Iterations 4
GAMG:  Solving for p, Initial residual = 0.00016273608, Final residual = 1.5576489e-06, No Iterations 4
GAMG:  Solving for p, Initial residual = 3.6383542e-05, Final residual = 3.32107e-07, No Iterations 4
GAMG:  Solving for p, Initial residual = 8.5087652e-06, Final residual = 7.6664348e-08, No Iterations 4
GAMG:  Solving for p, Initial residual = 2.3514415e-06, Final residual = 1.899462e-08, No Iterations 4
time step continuity errors : sum local = 3.8703657e-09, global = -1.6606698e-10, cumulative = 9.7248537e-09
smoothSolver:  Solving for omega, Initial residual = 0.025531045, Final residual = 0.001728248, No Iterations 3
smoothSolver:  Solving for k, Initial residual = 0.0085414401, Final residual = 0.00052974657, No Iterations 3
ExecutionTime = 152.787 s  ClockTime = 152 s

forces forces write:
    Sum of forces
        Total    : (0.046519482 3.6951305 -0.13065479)
        Pressure : (0.042439503 3.6933497 -0.13127895)
        Viscous  : (0.0040799783 0.0017807493 0.00062415935)
    Sum of moments
        Total    : (-2.3541325 0.084656593 0.46833669)
        Pressure : (-2.3536233 0.08238283 0.46612968)
        Viscous  : (-0.00050923669 0.0022737625 0.0022070082)


Time = 35

smoothSolver:  Solving for Ux, Initial residual = 0.0014107496, Final residual = 4.0553954e-05, No Iterations 2
smoothSolver:  Solving for Uy, Initial residual = 0.0011079158, Final residual = 3.2251786e-05, No Iterations 2
smoothSolver:  Solving for Uz, Initial residual = 0.005681564, Final residual = 0.00018128876, No Iterations 2
GAMG:  Solving for p, Initial residual = 0.019896402, Final residual = 0.00011595824, No Iterations 3
GAMG:  Solving for p, Initial residual = 0.0011839147, Final residual = 6.6948355e-06, No Iterations 4
GAMG:  Solving for p, Initial residual = 0.0001552618, Final residual = 1.3776744e-06, No Iterations 4
GAMG:  Solving for p, Initial residual = 3.5031609e-05, Final residual = 3.1026216e-07, No Iterations 4
GAMG:  Solving for p, Initial residual = 8.3235538e-06, Final residual = 7.5617516e-08, No Iterations 4
GAMG:  Solving for p, Initial residual = 2.3443981e-06, Final residual = 1.984934e-08, No Iterations 4
time step continuity errors : sum local = 4.043547e-09, global = -1.6866498e-10, cumulative = 9.5561887e-09
smoothSolver:  Solving for omega, Initial residual = 0.024528261, Final residual = 0.0016603609, No Iterations 3
smoothSolver:  Solving for k, Initial residual = 0.0083303314, Final residual = 0.00051631416, No Iterations 3
ExecutionTime = 157.149 s  ClockTime = 157 s

forces forces write:
    Sum of forces
        Total    : (0.04798318 3.6978729 -0.12968528)
        Pressure : (0.043641914 3.6962874 -0.13038528)
        Viscous  : (0.0043412656 0.0015854872 0.00069999457)
    Sum of moments
        Total    : (-2.3559816 0.085238284 0.4704494)
        Pressure : (-2.3556114 0.082809746 0.46817747)
        Viscous  : (-0.00037018213 0.0024285385 0.0022719325)


Time = 36

smoothSolver:  Solving for Ux, Initial residual = 0.0013939158, Final residual = 4.031768e-05, No Iterations 2
smoothSolver:  Solving for Uy, Initial residual = 0.0010664088, Final residual = 3.0811303e-05, No Iterations 2
smoothSolver:  Solving for Uz, Initial residual = 0.0056099575, Final residual = 0.00017763207, No Iterations 2
GAMG:  Solving for p, Initial residual = 0.018921188, Final residual = 0.0001026665, No Iterations 3
GAMG:  Solving for p, Initial residual = 0.0011110756, Final residual = 1.0970276e-05, No Iterations 3
GAMG:  Solving for p, Initial residual = 0.00015290083, Final residual = 9.3835526e-07, No Iterations 5
GAMG:  Solving for p, Initial residual = 3.3690865e-05, Final residual = 2.3224457e-07, No Iterations 4
GAMG:  Solving for p, Initial residual = 8.1016995e-06, Final residual = 6.3316974e-08, No Iterations 4
GAMG:  Solving for p, Initial residual = 2.2868537e-06, Final residual = 1.8104001e-08, No Iterations 4
time step continuity errors : sum local = 3.6845936e-09, global = -1.5232296e-10, cumulative = 9.4038657e-09
smoothSolver:  Solving for omega, Initial residual = 0.023587104, Final residual = 0.0015966176, No Iterations 3
smoothSolver:  Solving for k, Initial residual = 0.0081325224, Final residual = 0.00050371279, No Iterations 3
ExecutionTime = 161.391 s  ClockTime = 161 s

forces forces write:
    Sum of forces
        Total    : (0.04942998 3.7000215 -0.12863928)
        Pressure : (0.044802087 3.6986582 -0.12942429)
        Viscous  : (0.0046278931 0.0013632484 0.00078501761)
    Sum of moments
        Total    : (-2.3572453 0.085791806 0.4716894)
        Pressure : (-2.3570287 0.083199796 0.46934677)
        Viscous  : (-0.00021664648 0.0025920097 0.0023426301)


Time = 37

smoothSolver:  Solving for Ux, Initial residual = 0.0013790735, Final residual = 4.0091622e-05, No Iterations 2
smoothSolver:  Solving for Uy, Initial residual = 0.0010257733, Final residual = 2.9391501e-05, No Iterations 2
smoothSolver:  Solving for Uz, Initial residual = 0.0055418091, Final residual = 0.00017445758, No Iterations 2
GAMG:  Solving for p, Initial residual = 0.018037315, Final residual = 9.8430936e-05, No Iterations 3
GAMG:  Solving for p, Initial residual = 0.0010697114, Final residual = 9.3384374e-06, No Iterations 3
GAMG:  Solving for p, Initial residual = 0.00014697796, Final residual = 1.339039e-06, No Iterations 4
GAMG:  Solving for p, Initial residual = 3.3266065e-05, Final residual = 2.8669777e-07, No Iterations 4
GAMG:  Solving for p, Initial residual = 8.0661746e-06, Final residual = 7.3613366e-08, No Iterations 4
GAMG:  Solving for p, Initial residual = 2.2817645e-06, Final residual = 2.0240357e-08, No Iterations 4
time step continuity errors : sum local = 4.1140181e-09, global = -1.6468701e-10, cumulative = 9.2391787e-09
smoothSolver:  Solving for omega, Initial residual = 0.022702167, Final residual = 0.0015366476, No Iterations 3
smoothSolver:  Solving for k, Initial residual = 0.0079468406, Final residual = 0.00049187027, No Iterations 3
ExecutionTime = 165.591 s  ClockTime = 165 s

forces forces write:
    Sum of forces
        Total    : (0.050652328 3.700702 -0.12766493)
        Pressure : (0.045711485 3.6995888 -0.12854619)
        Viscous  : (0.0049408427 0.0011131886 0.00088126528)
    Sum of moments
        Total    : (-2.3574817 0.086263457 0.47182361)
        Pressure : (-2.3574326 0.08349914 0.46940505)
        Viscous  : (-4.9122152e-05 0.0027643175 0.0024185559)


Time = 38

smoothSolver:  Solving for Ux, Initial residual = 0.0013676407, Final residual = 3.9911401e-05, No Iterations 2
smoothSolver:  Solving for Uy, Initial residual = 0.00099344275, Final residual = 2.8242728e-05, No Iterations 2
smoothSolver:  Solving for Uz, Initial residual = 0.0054686119, Final residual = 0.00017171688, No Iterations 2
GAMG:  Solving for p, Initial residual = 0.017201878, Final residual = 9.1666842e-05, No Iterations 3
GAMG:  Solving for p, Initial residual = 0.001034471, Final residual = 8.7636466e-06, No Iterations 3
GAMG:  Solving for p, Initial residual = 0.00014482646, Final residual = 1.3403382e-06, No Iterations 4
GAMG:  Solving for p, Initial residual = 3.3374892e-05, Final residual = 2.913552e-07, No Iterations 4
GAMG:  Solving for p, Initial residual = 8.099532e-06, Final residual = 7.5667523e-08, No Iterations 4
GAMG:  Solving for p, Initial residual = 2.2994823e-06, Final residual = 2.0588291e-08, No Iterations 4
time step continuity errors : sum local = 4.1792931e-09, global = -1.8049513e-10, cumulative = 9.0586836e-09
smoothSolver:  Solving for omega, Initial residual = 0.021868614, Final residual = 0.0014801265, No Iterations 3
smoothSolver:  Solving for k, Initial residual = 0.0077724005, Final residual = 0.0004807256, No Iterations 3
ExecutionTime = 169.732 s  ClockTime = 169 s

forces forces write:
    Sum of forces
        Total    : (0.051691991 3.7002439 -0.12681968)
        Pressure : (0.046422508 3.6994048 -0.12780463)
        Viscous  : (0.0052694828 0.00083902185 0.00098494711)
    Sum of moments
        Total    : (-2.3570573 0.08668164 0.47146407)
        Pressure : (-2.3571864 0.083745132 0.46896571)
        Viscous  : (0.00012904565 0.0029365073 0.0024983652)


Time = 39

smoothSolver:  Solving for Ux, Initial residual = 0.0013575072, Final residual = 3.9759748e-05, No Iterations 2
smoothSolver:  Solving for Uy, Initial residual = 0.00097440802, Final residual = 2.7752087e-05, No Iterations 2
smoothSolver:  Solving for Uz, Initial residual = 0.0053922665, Final residual = 0.00016945901, No Iterations 2
GAMG:  Solving for p, Initial residual = 0.016428981, Final residual = 8.1751767e-05, No Iterations 3
GAMG:  Solving for p, Initial residual = 0.00098541989, Final residual = 9.3018035e-06, No Iterations 3
GAMG:  Solving for p, Initial residual = 0.00014051085, Final residual = 8.5583066e-07, No Iterations 5
GAMG:  Solving for p, Initial residual = 3.1753959e-05, Final residual = 2.1600951e-07, No Iterations 4
GAMG:  Solving for p, Initial residual = 7.6497412e-06, Final residual = 6.1638622e-08, No Iterations 4
GAMG:  Solving for p, Initial residual = 2.1711574e-06, Final residual = 1.7773912e-08, No Iterations 4
time step continuity errors : sum local = 3.6039385e-09, global = -1.7055046e-10, cumulative = 8.8881331e-09
smoothSolver:  Solving for omega, Initial residual = 0.021082212, Final residual = 0.001426763, No Iterations 3
smoothSolver:  Solving for k, Initial residual = 0.0076084004, Final residual = 0.00047022146, No Iterations 3
ExecutionTime = 174.171 s  ClockTime = 174 s

forces forces write:
    Sum of forces
        Total    : (0.05274272 3.6995619 -0.12605722)
        Pressure : (0.047135629 3.6990228 -0.12715027)
        Viscous  : (0.0056070909 0.00053907 0.0010930446)
    Sum of moments
        Total    : (-2.3566325 0.087115536 0.47140094)
        Pressure : (-2.3569508 0.084011678 0.46881887)
        Viscous  : (0.00031826674 0.003103858 0.0025820741)


Time = 40

smoothSolver:  Solving for Ux, Initial residual = 0.0013472914, Final residual = 3.9666361e-05, No Iterations 2
smoothSolver:  Solving for Uy, Initial residual = 0.00096252925, Final residual = 2.7542063e-05, No Iterations 2
smoothSolver:  Solving for Uz, Initial residual = 0.0053191098, Final residual = 0.00016739074, No Iterations 2
GAMG:  Solving for p, Initial residual = 0.015725332, Final residual = 7.7507809e-05, No Iterations 3
GAMG:  Solving for p, Initial residual = 0.00092844422, Final residual = 4.9149194e-06, No Iterations 4
GAMG:  Solving for p, Initial residual = 0.00013222975, Final residual = 1.1259095e-06, No Iterations 4
GAMG:  Solving for p, Initial residual = 3.1035753e-05, Final residual = 2.6482944e-07, No Iterations 4
GAMG:  Solving for p, Initial residual = 7.5253258e-06, Final residual = 7.1791766e-08, No Iterations 4
GAMG:  Solving for p, Initial residual = 2.1514666e-06, Final residual = 2.0318405e-08, No Iterations 4
time step continuity errors : sum local = 4.1162339e-09, global = -1.9186655e-10, cumulative = 8.6962666e-09
smoothSolver:  Solving for omega, Initial residual = 0.02033893, Final residual = 0.001376294, No Iterations 3
smoothSolver:  Solving for k, Initial residual = 0.0074539882, Final residual = 0.0004603093, No Iterations 3
ExecutionTime = 178.581 s  ClockTime = 178 s

forces forces write:
    Sum of forces
        Total    : (0.053942677 3.6993455 -0.12529107)
        Pressure : (0.048012795 3.6991281 -0.12648766)
        Viscous  : (0.0059298825 0.00021736416 0.0011965864)
    Sum of moments
        Total    : (-2.3566138 0.087587561 0.47200223)
        Pressure : (-2.3571298 0.084337455 0.46933324)
        Viscous  : (0.00051601814 0.0032501058 0.002668989)


Time = 41

smoothSolver:  Solving for Ux, Initial residual = 0.0013370944, Final residual = 3.9497789e-05, No Iterations 2
smoothSolver:  Solving for Uy, Initial residual = 0.00094785669, Final residual = 2.7152839e-05, No Iterations 2
smoothSolver:  Solving for Uz, Initial residual = 0.005249212, Final residual = 0.00016542909, No Iterations 2
GAMG:  Solving for p, Initial residual = 0.015082108, Final residual = 7.3402808e-05, No Iterations 3
GAMG:  Solving for p, Initial residual = 0.00088081293, Final residual = 4.7423869e-06, No Iterations 4
GAMG:  Solving for p, Initial residual = 0.00012977953, Final residual = 1.0881081e-06, No Iterations 4
GAMG:  Solving for p, Initial residual = 3.0716888e-05, Final residual = 2.6971928e-07, No Iterations 4
GAMG:  Solving for p, Initial residual = 7.5613476e-06, Final residual = 7.4382872e-08, No Iterations 4
GAMG:  Solving for p, Initial residual = 2.1926513e-06, Final residual = 2.1501276e-08, No Iterations 4
time step continuity errors : sum local = 4.3520029e-09, global = -1.9913226e-10, cumulative = 8.4971343e-09
smoothSolver:  Solving for omega, Initial residual = 0.019635196, Final residual = 0.0013284846, No Iterations 3
smoothSolver:  Solving for k, Initial residual = 0.0073082729, Final residual = 0.00045094335, No Iterations 3
ExecutionTime = 183.041 s  ClockTime = 183 s

forces forces write:
    Sum of forces
        Total    : (0.055299476 3.699641 -0.12447212)
        Pressure : (0.049064 3.6997655 -0.12576624)
        Viscous  : (0.006235476 -0.00012453601 0.0012941245)
    Sum of moments
        Total    : (-2.3569384 0.088077883 0.47306891)
        Pressure : (-2.3576612 0.08469972 0.47030939)
        Viscous  : (0.00072279661 0.0033781635 0.0027595144)


Time = 42

smoothSolver:  Solving for Ux, Initial residual = 0.0013276797, Final residual = 3.9261849e-05, No Iterations 2
smoothSolver:  Solving for Uy, Initial residual = 0.00092756359, Final residual = 2.6521089e-05, No Iterations 2
smoothSolver:  Solving for Uz, Initial residual = 0.0051837468, Final residual = 0.0001638561, No Iterations 2
GAMG:  Solving for p, Initial residual = 0.014521379, Final residual = 6.8320971e-05, No Iterations 3
GAMG:  Solving for p, Initial residual = 0.0008486099, Final residual = 4.1855704e-06, No Iterations 4
GAMG:  Solving for p, Initial residual = 0.00012548219, Final residual = 9.7416046e-07, No Iterations 4
GAMG:  Solving for p, Initial residual = 2.989894e-05, Final residual = 2.4887995e-07, No Iterations 4
GAMG:  Solving for p, Initial residual = 7.4032008e-06, Final residual = 7.0306064e-08, No Iterations 4
GAMG:  Solving for p, Initial residual = 2.1474797e-06, Final residual = 2.0603587e-08, No Iterations 4
time step continuity errors : sum local = 4.1653142e-09, global = -1.8476993e-10, cumulative = 8.3123644e-09
smoothSolver:  Solving for omega, Initial residual = 0.018967267, Final residual = 0.0012830891, No Iterations 3
smoothSolver:  Solving for k, Initial residual = 0.0071703804, Final residual = 0.00044206889, No Iterations 3
ExecutionTime = 187.251 s  ClockTime = 187 s

forces forces write:
    Sum of forces
        Total    : (0.056682938 3.7000185 -0.12362794)
        Pressure : (0.050185198 3.7005031 -0.12500309)
        Viscous  : (0.0064977405 -0.00048456113 0.0013751591)
    Sum of moments
        Total    : (-2.3572636 0.088525823 0.47412707)
        Pressure : (-2.3582018 0.085048652 0.47127327)
        Viscous  : (0.0009382476 0.0034771705 0.0028538024)


Time = 43

smoothSolver:  Solving for Ux, Initial residual = 0.0013191873, Final residual = 3.8983046e-05, No Iterations 2
smoothSolver:  Solving for Uy, Initial residual = 0.00090692899, Final residual = 2.5775702e-05, No Iterations 2
smoothSolver:  Solving for Uz, Initial residual = 0.0051214677, Final residual = 0.00016243575, No Iterations 2
GAMG:  Solving for p, Initial residual = 0.013968959, Final residual = 6.4778403e-05, No Iterations 3
GAMG:  Solving for p, Initial residual = 0.0008209961, Final residual = 7.7877585e-06, No Iterations 3
GAMG:  Solving for p, Initial residual = 0.00012446603, Final residual = 1.2320647e-06, No Iterations 4
GAMG:  Solving for p, Initial residual = 2.9238151e-05, Final residual = 2.8364846e-07, No Iterations 4
GAMG:  Solving for p, Initial residual = 7.1164501e-06, Final residual = 4.2866883e-08, No Iterations 5
GAMG:  Solving for p, Initial residual = 2.0244674e-06, Final residual = 1.4601383e-08, No Iterations 4
time step continuity errors : sum local = 2.9475436e-09, global = -1.3000922e-10, cumulative = 8.1823552e-09
smoothSolver:  Solving for omega, Initial residual = 0.018332633, Final residual = 0.001239941, No Iterations 3
smoothSolver:  Solving for k, Initial residual = 0.0070396008, Final residual = 0.00043364033, No Iterations 3
ExecutionTime = 191.501 s  ClockTime = 191 s

forces forces write:
    Sum of forces
        Total    : (0.05797271 3.7000151 -0.12282064)
        Pressure : (0.051272217 3.7008667 -0.12425372)
        Viscous  : (0.0067004933 -0.00085167082 0.0014330832)
    Sum of moments
        Total    : (-2.3572915 0.088899393 0.4748256)
        Pressure : (-2.358447 0.085357047 0.47187594)
        Viscous  : (0.0011555218 0.0035423461 0.0029496611)


Time = 44

smoothSolver:  Solving for Ux, Initial residual = 0.0013119578, Final residual = 3.8707064e-05, No Iterations 2
smoothSolver:  Solving for Uy, Initial residual = 0.00089105358, Final residual = 2.5156455e-05, No Iterations 2
smoothSolver:  Solving for Uz, Initial residual = 0.0050629149, Final residual = 0.00016117625, No Iterations 2
GAMG:  Solving for p, Initial residual = 0.013437395, Final residual = 6.2148634e-05, No Iterations 3
GAMG:  Solving for p, Initial residual = 0.00079266359, Final residual = 7.0515592e-06, No Iterations 3
GAMG:  Solving for p, Initial residual = 0.00011938577, Final residual = 1.1283457e-06, No Iterations 4
GAMG:  Solving for p, Initial residual = 2.8312486e-05, Final residual = 2.6553382e-07, No Iterations 4
GAMG:  Solving for p, Initial residual = 6.8095893e-06, Final residual = 4.1089852e-08, No Iterations 5
GAMG:  Solving for p, Initial residual = 1.9397245e-06, Final residual = 1.3984781e-08, No Iterations 4
time step continuity errors : sum local = 2.8184939e-09, global = -1.2390481e-10, cumulative = 8.0584504e-09
smoothSolver:  Solving for omega, Initial residual = 0.017728872, Final residual = 0.0011988759, No Iterations 3
smoothSolver:  Solving for k, Initial residual = 0.0069152386, Final residual = 0.00042561757, No Iterations 3
ExecutionTime = 195.921 s  ClockTime = 195 s

forces forces write:
    Sum of forces
        Total    : (0.059118499 3.6994835 -0.12210214)
        Pressure : (0.052286687 3.7007009 -0.12356582)
        Viscous  : (0.0068318121 -0.0012174151 0.001463679)
    Sum of moments
        Total    : (-2.3569738 0.089203608 0.47514848)
        Pressure : (-2.3583455 0.085628339 0.47210228)
        Viscous  : (0.0013716239 0.0035752694 0.0030462079)


Time = 45

smoothSolver:  Solving for Ux, Initial residual = 0.0013055967, Final residual = 3.8470272e-05, No Iterations 2
smoothSolver:  Solving for Uy, Initial residual = 0.00088116781, Final residual = 2.4720898e-05, No Iterations 2
smoothSolver:  Solving for Uz, Initial residual = 0.005006294, Final residual = 0.00016008977, No Iterations 2
GAMG:  Solving for p, Initial residual = 0.012907129, Final residual = 5.8028123e-05, No Iterations 3
GAMG:  Solving for p, Initial residual = 0.00075936859, Final residual = 6.8097683e-06, No Iterations 3
GAMG:  Solving for p, Initial residual = 0.00011540765, Final residual = 1.1082984e-06, No Iterations 4
GAMG:  Solving for p, Initial residual = 2.7563686e-05, Final residual = 2.6859744e-07, No Iterations 4
GAMG:  Solving for p, Initial residual = 6.6577322e-06, Final residual = 4.127231e-08, No Iterations 5
[...]
smoothSolver:  Solving for k, Initial residual = 0.0011447135, Final residual = 5.6972664e-05, No Iterations 3
ExecutionTime = 1646.007 s  ClockTime = 1646 s

forces forces write:
    Sum of forces
        Total    : (0.084394823 3.7369563 -0.065873299)
        Pressure : (0.073308099 3.7374885 -0.073439009)
        Viscous  : (0.011086723 -0.00053217107 0.0075657099)
    Sum of moments
        Total    : (-2.370719 0.066094484 0.57667056)
        Pressure : (-2.3704664 0.06588022 0.52778513)
        Viscous  : (-0.00025262679 0.00021426465 0.048885437)


Time = 330

smoothSolver:  Solving for Ux, Initial residual = 7.6983153e-05, Final residual = 2.4716397e-06, No Iterations 2
smoothSolver:  Solving for Uy, Initial residual = 6.0045687e-05, Final residual = 2.2509647e-06, No Iterations 2
smoothSolver:  Solving for Uz, Initial residual = 0.00017591528, Final residual = 6.1876568e-06, No Iterations 2
GAMG:  Solving for p, Initial residual = 0.00032143537, Final residual = 2.991925e-06, No Iterations 3
GAMG:  Solving for p, Initial residual = 2.6913793e-05, Final residual = 2.5201592e-07, No Iterations 4
GAMG:  Solving for p, Initial residual = 3.726644e-06, Final residual = 2.1549133e-08, No Iterations 5
GAMG:  Solving for p, Initial residual = 8.0299199e-07, Final residual = 6.2937779e-09, No Iterations 4
GAMG:  Solving for p, Initial residual = 1.8589886e-07, Final residual = 5.501247e-09, No Iterations 2
GAMG:  Solving for p, Initial residual = 5.465878e-08, Final residual = 5.9134637e-09, No Iterations 1
time step continuity errors : sum local = 6.74093e-10, global = -2.0678727e-11, cumulative = 5.8271895e-09
smoothSolver:  Solving for omega, Initial residual = 0.00014879545, Final residual = 7.6714512e-06, No Iterations 3
smoothSolver:  Solving for k, Initial residual = 0.0011305153, Final residual = 5.6230026e-05, No Iterations 3
ExecutionTime = 1650.35 s  ClockTime = 1650 s

forces forces write:
    Sum of forces
        Total    : (0.084436724 3.7369925 -0.065841353)
        Pressure : (0.073318268 3.7375413 -0.07343484)
        Viscous  : (0.011118457 -0.00054876759 0.0075934873)
    Sum of moments
        Total    : (-2.3707187 0.066099423 0.57672818)
        Pressure : (-2.3704777 0.065864856 0.52781015)
        Viscous  : (-0.00024105907 0.00023456673 0.048918022)


Time = 331

smoothSolver:  Solving for Ux, Initial residual = 7.6366637e-05, Final residual = 2.4527217e-06, No Iterations 2
smoothSolver:  Solving for Uy, Initial residual = 5.9509666e-05, Final residual = 2.2307383e-06, No Iterations 2
smoothSolver:  Solving for Uz, Initial residual = 0.00017424397, Final residual = 6.1287219e-06, No Iterations 2
GAMG:  Solving for p, Initial residual = 0.00031906485, Final residual = 2.9580859e-06, No Iterations 3
GAMG:  Solving for p, Initial residual = 2.6700877e-05, Final residual = 2.4836178e-07, No Iterations 4
GAMG:  Solving for p, Initial residual = 3.6996447e-06, Final residual = 2.123881e-08, No Iterations 5
GAMG:  Solving for p, Initial residual = 7.9959718e-07, Final residual = 6.2376663e-09, No Iterations 4
GAMG:  Solving for p, Initial residual = 1.8512255e-07, Final residual = 5.4660706e-09, No Iterations 2
GAMG:  Solving for p, Initial residual = 5.4442849e-08, Final residual = 5.8737835e-09, No Iterations 1
time step continuity errors : sum local = 6.6879219e-10, global = -2.0461648e-11, cumulative = 5.8067279e-09
smoothSolver:  Solving for omega, Initial residual = 0.00014767708, Final residual = 7.6160644e-06, No Iterations 3
smoothSolver:  Solving for k, Initial residual = 0.0011164598, Final residual = 5.5495572e-05, No Iterations 3
ExecutionTime = 1655.872 s  ClockTime = 1655 s

forces forces write:
    Sum of forces
        Total    : (0.084478271 3.7370276 -0.065809955)
        Pressure : (0.073328116 3.7375929 -0.07343088)
        Viscous  : (0.011150155 -0.00056529737 0.0076209256)
    Sum of moments
        Total    : (-2.3707182 0.0661047 0.57678478)
        Pressure : (-2.3704888 0.065849739 0.52783435)
        Viscous  : (-0.00022932647 0.00025496139 0.048950434)


Time = 332

smoothSolver:  Solving for Ux, Initial residual = 7.575726e-05, Final residual = 2.43403e-06, No Iterations 2
smoothSolver:  Solving for Uy, Initial residual = 5.8977844e-05, Final residual = 2.2106552e-06, No Iterations 2
smoothSolver:  Solving for Uz, Initial residual = 0.000172587, Final residual = 6.0702188e-06, No Iterations 2
GAMG:  Solving for p, Initial residual = 0.00031675163, Final residual = 2.9260659e-06, No Iterations 3
GAMG:  Solving for p, Initial residual = 2.6489375e-05, Final residual = 2.4488992e-07, No Iterations 4
GAMG:  Solving for p, Initial residual = 3.6734708e-06, Final residual = 2.0895577e-08, No Iterations 5
GAMG:  Solving for p, Initial residual = 7.9557627e-07, Final residual = 6.1665613e-09, No Iterations 4
GAMG:  Solving for p, Initial residual = 1.8464685e-07, Final residual = 5.4083939e-09, No Iterations 2
GAMG:  Solving for p, Initial residual = 5.4341994e-08, Final residual = 5.8232822e-09, No Iterations 1
time step continuity errors : sum local = 6.6227998e-10, global = -2.0246581e-11, cumulative = 5.7864813e-09
smoothSolver:  Solving for omega, Initial residual = 0.00014658301, Final residual = 7.5618948e-06, No Iterations 3
smoothSolver:  Solving for k, Initial residual = 0.0011025395, Final residual = 5.4768909e-05, No Iterations 3
ExecutionTime = 1659.843 s  ClockTime = 1659 s

forces forces write:
    Sum of forces
        Total    : (0.084519578 3.7370616 -0.065779073)
        Pressure : (0.073337763 3.7376433 -0.073427185)
        Viscous  : (0.011181815 -0.00058170581 0.0076481119)
    Sum of moments
        Total    : (-2.3707172 0.066110387 0.57684059)
        Pressure : (-2.3704998 0.065834987 0.52785787)
        Viscous  : (-0.00021743469 0.00027540053 0.048982721)


Time = 333

smoothSolver:  Solving for Ux, Initial residual = 7.5154589e-05, Final residual = 2.4155493e-06, No Iterations 2
smoothSolver:  Solving for Uy, Initial residual = 5.8452333e-05, Final residual = 2.1907296e-06, No Iterations 2
smoothSolver:  Solving for Uz, Initial residual = 0.00017094401, Final residual = 6.0121745e-06, No Iterations 2
GAMG:  Solving for p, Initial residual = 0.00031442645, Final residual = 2.8942928e-06, No Iterations 3
GAMG:  Solving for p, Initial residual = 2.6280855e-05, Final residual = 2.416692e-07, No Iterations 4
GAMG:  Solving for p, Initial residual = 3.6414964e-06, Final residual = 2.0602847e-08, No Iterations 5
GAMG:  Solving for p, Initial residual = 7.8979277e-07, Final residual = 6.1090608e-09, No Iterations 4
GAMG:  Solving for p, Initial residual = 1.8337224e-07, Final residual = 5.3611982e-09, No Iterations 2
GAMG:  Solving for p, Initial residual = 5.3975559e-08, Final residual = 5.7782957e-09, No Iterations 1
time step continuity errors : sum local = 6.5641612e-10, global = -2.0061403e-11, cumulative = 5.7664199e-09
smoothSolver:  Solving for omega, Initial residual = 0.00014551219, Final residual = 7.5088948e-06, No Iterations 3
smoothSolver:  Solving for k, Initial residual = 0.0010886791, Final residual = 5.4046281e-05, No Iterations 3
ExecutionTime = 1664.157 s  ClockTime = 1664 s

forces forces write:
    Sum of forces
        Total    : (0.084560792 3.7370948 -0.065748644)
        Pressure : (0.073347261 3.7376926 -0.073423778)
        Viscous  : (0.011213531 -0.00059781183 0.0076751346)
    Sum of moments
        Total    : (-2.3707159 0.066116501 0.57689591)
        Pressure : (-2.3705105 0.065820665 0.52788079)
        Viscous  : (-0.00020536338 0.00029583599 0.049015123)


Time = 334

smoothSolver:  Solving for Ux, Initial residual = 7.4556967e-05, Final residual = 2.3972565e-06, No Iterations 2
smoothSolver:  Solving for Uy, Initial residual = 5.7929481e-05, Final residual = 2.1709141e-06, No Iterations 2
smoothSolver:  Solving for Uz, Initial residual = 0.0001693126, Final residual = 5.9545214e-06, No Iterations 2
GAMG:  Solving for p, Initial residual = 0.00031189785, Final residual = 2.8626841e-06, No Iterations 3
GAMG:  Solving for p, Initial residual = 2.6080947e-05, Final residual = 2.3852103e-07, No Iterations 4
GAMG:  Solving for p, Initial residual = 3.6178405e-06, Final residual = 2.0311378e-08, No Iterations 5
GAMG:  Solving for p, Initial residual = 7.8527275e-07, Final residual = 6.0657199e-09, No Iterations 4
GAMG:  Solving for p, Initial residual = 1.8241093e-07, Final residual = 5.3318855e-09, No Iterations 2
GAMG:  Solving for p, Initial residual = 5.37969e-08, Final residual = 5.7500209e-09, No Iterations 1
time step continuity errors : sum local = 6.5246831e-10, global = -1.9787594e-11, cumulative = 5.7466323e-09
smoothSolver:  Solving for omega, Initial residual = 0.00014446407, Final residual = 7.4570182e-06, No Iterations 3
smoothSolver:  Solving for k, Initial residual = 0.0010749592, Final residual = 5.3331658e-05, No Iterations 3
ExecutionTime = 1668.541 s  ClockTime = 1668 s

forces forces write:
    Sum of forces
        Total    : (0.084601792 3.7371272 -0.065718824)
        Pressure : (0.073356514 3.7377408 -0.073420697)
        Viscous  : (0.011245278 -0.00061356 0.0077018723)
    Sum of moments
        Total    : (-2.3707142 0.066123045 0.57695064)
        Pressure : (-2.3705211 0.065806713 0.527903)
        Viscous  : (-0.00019314153 0.00031633141 0.049047645)


Time = 335

smoothSolver:  Solving for Ux, Initial residual = 7.3967579e-05, Final residual = 2.379179e-06, No Iterations 2
smoothSolver:  Solving for Uy, Initial residual = 5.7411623e-05, Final residual = 2.1512509e-06, No Iterations 2
smoothSolver:  Solving for Uz, Initial residual = 0.00016769389, Final residual = 5.8972481e-06, No Iterations 2
GAMG:  Solving for p, Initial residual = 0.00030944153, Final residual = 2.8315282e-06, No Iterations 3
GAMG:  Solving for p, Initial residual = 2.585076e-05, Final residual = 2.3525703e-07, No Iterations 4
GAMG:  Solving for p, Initial residual = 3.5779342e-06, Final residual = 2.0058742e-08, No Iterations 5
GAMG:  Solving for p, Initial residual = 7.7686772e-07, Final residual = 6.015578e-09, No Iterations 4
GAMG:  Solving for p, Initial residual = 1.8046256e-07, Final residual = 5.3049633e-09, No Iterations 2
GAMG:  Solving for p, Initial residual = 5.3404781e-08, Final residual = 5.7212845e-09, No Iterations 1
time step continuity errors : sum local = 6.484836e-10, global = -1.955629e-11, cumulative = 5.727076e-09
smoothSolver:  Solving for omega, Initial residual = 0.00014343762, Final residual = 7.4062088e-06, No Iterations 3
smoothSolver:  Solving for k, Initial residual = 0.0010613789, Final residual = 5.2624982e-05, No Iterations 3
ExecutionTime = 1672.775 s  ClockTime = 1672 s

forces forces write:
    Sum of forces
        Total    : (0.084642468 3.7371586 -0.065689674)
        Pressure : (0.073365435 3.7377878 -0.073417943)
        Viscous  : (0.011277033 -0.00062915604 0.0077282682)
    Sum of moments
        Total    : (-2.3707123 0.066130042 0.5770045)
        Pressure : (-2.3705315 0.065793069 0.52792438)
        Viscous  : (-0.00018074794 0.00033697351 0.049080117)


Time = 336

smoothSolver:  Solving for Ux, Initial residual = 7.3385926e-05, Final residual = 2.3613187e-06, No Iterations 2
smoothSolver:  Solving for Uy, Initial residual = 5.6899406e-05, Final residual = 2.1317566e-06, No Iterations 2
smoothSolver:  Solving for Uz, Initial residual = 0.00016608931, Final residual = 5.8404075e-06, No Iterations 2
GAMG:  Solving for p, Initial residual = 0.00030708697, Final residual = 2.8003925e-06, No Iterations 3
GAMG:  Solving for p, Initial residual = 2.5594777e-05, Final residual = 2.3154905e-07, No Iterations 4
GAMG:  Solving for p, Initial residual = 3.5395725e-06, Final residual = 1.9770101e-08, No Iterations 5
GAMG:  Solving for p, Initial residual = 7.7050844e-07, Final residual = 5.9356642e-09, No Iterations 4
GAMG:  Solving for p, Initial residual = 1.788367e-07, Final residual = 5.2519852e-09, No Iterations 2
GAMG:  Solving for p, Initial residual = 5.2947291e-08, Final residual = 5.6533398e-09, No Iterations 1
time step continuity errors : sum local = 6.4007505e-10, global = -1.9164124e-11, cumulative = 5.7079119e-09
smoothSolver:  Solving for omega, Initial residual = 0.00014243229, Final residual = 7.3564666e-06, No Iterations 3
smoothSolver:  Solving for k, Initial residual = 0.0010479364, Final residual = 5.1926172e-05, No Iterations 3
ExecutionTime = 1677.411 s  ClockTime = 1677 s

forces forces write:
    Sum of forces
        Total    : (0.084682882 3.7371892 -0.065661015)
        Pressure : (0.07337402 3.7378336 -0.073415432)
        Viscous  : (0.011308861 -0.00064440735 0.0077544175)
    Sum of moments
        Total    : (-2.3707101 0.066137362 0.57705764)
        Pressure : (-2.3705419 0.065779691 0.52794491)
        Viscous  : (-0.00016817603 0.00035767126 0.049112728)


Time = 337

smoothSolver:  Solving for Ux, Initial residual = 7.2810664e-05, Final residual = 2.3436681e-06, No Iterations 2
smoothSolver:  Solving for Uy, Initial residual = 5.6391322e-05, Final residual = 2.1123981e-06, No Iterations 2
smoothSolver:  Solving for Uz, Initial residual = 0.00016449808, Final residual = 5.7839676e-06, No Iterations 2
GAMG:  Solving for p, Initial residual = 0.00030483152, Final residual = 2.7692917e-06, No Iterations 3
GAMG:  Solving for p, Initial residual = 2.5370314e-05, Final residual = 2.2764839e-07, No Iterations 4
GAMG:  Solving for p, Initial residual = 3.5109019e-06, Final residual = 1.9432708e-08, No Iterations 5
GAMG:  Solving for p, Initial residual = 7.6615772e-07, Final residual = 5.8612711e-09, No Iterations 4
GAMG:  Solving for p, Initial residual = 1.7814049e-07, Final residual = 5.1959109e-09, No Iterations 2
GAMG:  Solving for p, Initial residual = 5.283202e-08, Final residual = 5.6077441e-09, No Iterations 1
time step continuity errors : sum local = 6.3421897e-10, global = -1.8862293e-11, cumulative = 5.6890496e-09
smoothSolver:  Solving for omega, Initial residual = 0.0001414467, Final residual = 7.3077539e-06, No Iterations 3
smoothSolver:  Solving for k, Initial residual = 0.0010346305, Final residual = 5.1235131e-05, No Iterations 3
ExecutionTime = 1682.185 s  ClockTime = 1682 s

forces forces write:
    Sum of forces
        Total    : (0.084723085 3.7372188 -0.065632743)
        Pressure : (0.073382326 3.7378781 -0.073413113)
        Viscous  : (0.011340758 -0.00065934344 0.0077803692)
    Sum of moments
        Total    : (-2.3707075 0.066144982 0.57711013)
        Pressure : (-2.3705521 0.065766603 0.52796465)
        Viscous  : (-0.00015543147 0.00037837925 0.04914548)


Time = 338

smoothSolver:  Solving for Ux, Initial residual = 7.2242052e-05, Final residual = 2.3262242e-06, No Iterations 2
smoothSolver:  Solving for Uy, Initial residual = 5.5882846e-05, Final residual = 2.0931367e-06, No Iterations 2
smoothSolver:  Solving for Uz, Initial residual = 0.00016292308, Final residual = 5.7279793e-06, No Iterations 2
GAMG:  Solving for p, Initial residual = 0.00030255918, Final residual = 2.7382829e-06, No Iterations 3
GAMG:  Solving for p, Initial residual = 2.5168119e-05, Final residual = 2.2344646e-07, No Iterations 4
GAMG:  Solving for p, Initial residual = 3.4913761e-06, Final residual = 1.9107893e-08, No Iterations 5
GAMG:  Solving for p, Initial residual = 7.6095814e-07, Final residual = 5.7676811e-09, No Iterations 4
GAMG:  Solving for p, Initial residual = 1.7738483e-07, Final residual = 5.1334262e-09, No Iterations 2
GAMG:  Solving for p, Initial residual = 5.2623857e-08, Final residual = 5.552698e-09, No Iterations 1
time step continuity errors : sum local = 6.2731457e-10, global = -1.8518803e-11, cumulative = 5.6705308e-09
smoothSolver:  Solving for omega, Initial residual = 0.00014048094, Final residual = 7.259972e-06, No Iterations 3
smoothSolver:  Solving for k, Initial residual = 0.0010214596, Final residual = 5.0551745e-05, No Iterations 3
ExecutionTime = 1686.703 s  ClockTime = 1686 s

forces forces write:
    Sum of forces
        Total    : (0.084763093 3.7372476 -0.065604851)
        Pressure : (0.073390388 3.7379216 -0.07341097)
        Viscous  : (0.011372705 -0.00067393116 0.0078061189)
    Sum of moments
        Total    : (-2.3707046 0.06615291 0.57716201)
        Pressure : (-2.3705621 0.065753811 0.52798365)
        Viscous  : (-0.00014255006 0.00039909904 0.049178358)


Time = 339

smoothSolver:  Solving for Ux, Initial residual = 7.168023e-05, Final residual = 2.3089756e-06, No Iterations 2
smoothSolver:  Solving for Uy, Initial residual = 5.537797e-05, Final residual = 2.0740109e-06, No Iterations 2
smoothSolver:  Solving for Uz, Initial residual = 0.00016136108, Final residual = 5.6724712e-06, No Iterations 2
GAMG:  Solving for p, Initial residual = 0.00030032117, Final residual = 2.7072049e-06, No Iterations 3
GAMG:  Solving for p, Initial residual = 2.4958214e-05, Final residual = 2.1946014e-07, No Iterations 4
GAMG:  Solving for p, Initial residual = 3.4728658e-06, Final residual = 1.8800814e-08, No Iterations 5
GAMG:  Solving for p, Initial residual = 7.5857475e-07, Final residual = 5.7185969e-09, No Iterations 4
GAMG:  Solving for p, Initial residual = 1.7705708e-07, Final residual = 5.1011727e-09, No Iterations 2
GAMG:  Solving for p, Initial residual = 5.2611306e-08, Final residual = 5.529389e-09, No Iterations 1
time step continuity errors : sum local = 6.2401298e-10, global = -1.8374537e-11, cumulative = 5.6521562e-09
smoothSolver:  Solving for omega, Initial residual = 0.00013953425, Final residual = 7.2131003e-06, No Iterations 3
smoothSolver:  Solving for k, Initial residual = 0.0010084219, Final residual = 4.9875923e-05, No Iterations 3
ExecutionTime = 1691.831 s  ClockTime = 1691 s

forces forces write:
    Sum of forces
        Total    : (0.08480291 3.7372756 -0.065577324)
        Pressure : (0.07339822 3.7379638 -0.073408993)
        Viscous  : (0.01140469 -0.00068821686 0.0078316688)
    Sum of moments
        Total    : (-2.3707014 0.066161132 0.57721326)
        Pressure : (-2.3705719 0.065741304 0.52800191)
        Viscous  : (-0.00012950837 0.00041982735 0.049211342)


Time = 340

smoothSolver:  Solving for Ux, Initial residual = 7.1123442e-05, Final residual = 2.2919171e-06, No Iterations 2
smoothSolver:  Solving for Uy, Initial residual = 5.4877825e-05, Final residual = 2.0550478e-06, No Iterations 2
smoothSolver:  Solving for Uz, Initial residual = 0.00015981122, Final residual = 5.6173363e-06, No Iterations 2
GAMG:  Solving for p, Initial residual = 0.00029806178, Final residual = 2.677405e-06, No Iterations 3
GAMG:  Solving for p, Initial residual = 2.4763318e-05, Final residual = 2.1592702e-07, No Iterations 4
GAMG:  Solving for p, Initial residual = 3.4491404e-06, Final residual = 1.8475557e-08, No Iterations 5
GAMG:  Solving for p, Initial residual = 7.5499816e-07, Final residual = 5.6717808e-09, No Iterations 4
GAMG:  Solving for p, Initial residual = 1.7643314e-07, Final residual = 5.0612967e-09, No Iterations 2
GAMG:  Solving for p, Initial residual = 5.2476573e-08, Final residual = 5.4998172e-09, No Iterations 1
time step continuity errors : sum local = 6.200185e-10, global = -1.8234228e-11, cumulative = 5.633922e-09
smoothSolver:  Solving for omega, Initial residual = 0.00013860561, Final residual = 7.167086e-06, No Iterations 3
smoothSolver:  Solving for k, Initial residual = 0.00099551628, Final residual = 4.9207584e-05, No Iterations 3
ExecutionTime = 1696.997 s  ClockTime = 1697 s


SIMPLE solution converged in 340 iterations

forces forces write:
    Sum of forces
        Total    : (0.084842518 3.7373026 -0.065550196)
        Pressure : (0.073405815 3.7380049 -0.073407205)
        Viscous  : (0.011436703 -0.00070227638 0.0078570091)
    Sum of moments
        Total    : (-2.3706979 0.066169627 0.57726388)
        Pressure : (-2.3705816 0.065729072 0.52801947)
        Viscous  : (-0.00011628188 0.00044055501 0.049244405)


End

Finalising parallel run
