/*---------------------------------------------------------------------------*\
| =========                 |                                                 |
| \\      /  F ield         | OpenFOAM: The Open Source CFD Toolbox           |
|  \\    /   O peration     | Version:  v2012                                 |
|   \\  /    A nd           | Website:  www.openfoam.com                      |
|    \\/     M anipulation  |                                                 |
\*---------------------------------------------------------------------------*/
Build  : 79e353b84e-20201222 OPENFOAM=2012
Arch   : "LSB;label=32;scalar=64"
Exec   : simpleFoam -parallel
Date   : Apr 17 2022
Time   : 21:17:16
Host   : DESKTOP-OGTHBU9
PID    : 2784
I/O    : uncollated
Case   : C:/Users/ZEEMAR~1/AppData/Local/Temp/case
nProcs : 4
Hosts  :
(
    (DESKTOP-OGTHBU9 4)
)
Pstream initialized with:
    floatTransfer      : 0
    nProcsSimpleSum    : 0
    commsType          : nonBlocking
    polling iterations : 0
trapFpe: Floating point exception trapping enabled (FOAM_SIGFPE).
fileModificationChecking : Monitoring run-time modified files using timeStampMaster (fileModificationSkew 5, maxFileModificationPolls 20)
allowSystemOperations : Allowing user-supplied system call operations

// * * * * * * * * * * * * * * * * * * * * * * * * * * * * * * * * * * * * * //
Create time

Create mesh for time = 0


SIMPLE: convergence criteria
    field p	 tolerance 0.001
    field U	 tolerance 0.001
    field "(k|epsilon|omega|f|v2|nuTilda)"	 tolerance 0.001

Reading field p

Reading field U

Reading/calculating face flux field phi

Selecting incompressible transport model Newtonian
Selecting turbulence model type RAS
Selecting RAS turbulence model kOmegaSST
Selecting patchDistMethod meshWave
RAS
{
    RASModel        kOmegaSST;
    turbulence      on;
    printCoeffs     on;
    alphaK1         0.85;
    alphaK2         1;
    alphaOmega1     0.5;
    alphaOmega2     0.856;
    gamma1          0.55555556;
    gamma2          0.44;
    beta1           0.075;
    beta2           0.0828;
    betaStar        0.09;
    a1              0.31;
    b1              1;
    c1              10;
    F3              false;
    decayControl    false;
    kInf            0;
    omegaInf        0;
}

No MRF models present

No finite volume options present

Starting time loop

forces forces:
    rho: rhoInf
    Freestream density (rhoInf) set to 1
    Not including porosity effects
    Fields will be written

Time = 1

smoothSolver:  Solving for Ux, Initial residual = 0.037323623, Final residual = 0.00069481493, No Iterations 2
smoothSolver:  Solving for Uy, Initial residual = 0.11904645, Final residual = 0.0021000842, No Iterations 2
smoothSolver:  Solving for Uz, Initial residual = 0.12027526, Final residual = 0.010554708, No Iterations 1
GAMG:  Solving for p, Initial residual = 0.51133646, Final residual = 0.0045821652, No Iterations 3
GAMG:  Solving for p, Initial residual = 0.031163221, Final residual = 0.00024065415, No Iterations 4
GAMG:  Solving for p, Initial residual = 0.0041952691, Final residual = 4.178374e-05, No Iterations 4
GAMG:  Solving for p, Initial residual = 0.0008463219, Final residual = 4.5322179e-06, No Iterations 5
GAMG:  Solving for p, Initial residual = 0.00021307978, Final residual = 1.1701915e-06, No Iterations 4
GAMG:  Solving for p, Initial residual = 5.7983095e-05, Final residual = 3.21332e-07, No Iterations 4
time step continuity errors : sum local = 1.3139935e-07, global = -6.5681551e-09, cumulative = -6.5681551e-09
smoothSolver:  Solving for omega, Initial residual = 1, Final residual = 0.056696408, No Iterations 3
smoothSolver:  Solving for k, Initial residual = 1, Final residual = 0.083128647, No Iterations 2
ExecutionTime = 2.13 s  ClockTime = 2 s

forces forces write:
    Sum of forces
        Total    : (0.065572178 3.3964325 -0.1124)
        Pressure : (0.065163093 3.3940138 -0.11207609)
        Viscous  : (0.00040908544 0.0024186452 -0.00032390736)
    Sum of moments
        Total    : (-2.161037 0.085570903 0.51624127)
        Pressure : (-2.1596644 0.085390901 0.51530402)
        Viscous  : (-0.001372594 0.00018000254 0.00093725445)


Time = 2

smoothSolver:  Solving for Ux, Initial residual = 0.020380524, Final residual = 0.00193844, No Iterations 1
smoothSolver:  Solving for Uy, Initial residual = 0.054123801, Final residual = 0.0047983481, No Iterations 1
smoothSolver:  Solving for Uz, Initial residual = 0.062871379, Final residual = 0.0057298704, No Iterations 1
GAMG:  Solving for p, Initial residual = 0.43598243, Final residual = 0.0041185394, No Iterations 3
GAMG:  Solving for p, Initial residual = 0.029843696, Final residual = 0.00019827693, No Iterations 4
GAMG:  Solving for p, Initial residual = 0.0043539637, Final residual = 3.9614332e-05, No Iterations 4
GAMG:  Solving for p, Initial residual = 0.00091168738, Final residual = 8.8438096e-06, No Iterations 4
GAMG:  Solving for p, Initial residual = 0.00023971669, Final residual = 2.0253457e-06, No Iterations 4
GAMG:  Solving for p, Initial residual = 6.7312115e-05, Final residual = 5.1390243e-07, No Iterations 4
time step continuity errors : sum local = 2.0436136e-07, global = -1.0342088e-08, cumulative = -1.6910243e-08
smoothSolver:  Solving for omega, Initial residual = 0.48582125, Final residual = 0.02888981, No Iterations 3
smoothSolver:  Solving for k, Initial residual = 0.23850467, Final residual = 0.021859385, No Iterations 2
ExecutionTime = 3.583 s  ClockTime = 3 s

forces forces write:
    Sum of forces
        Total    : (0.11901967 3.9719534 -0.12470436)
        Pressure : (0.11830534 3.968108 -0.12423303)
        Viscous  : (0.0007143267 0.0038454453 -0.00047132292)
    Sum of moments
        Total    : (-2.5222628 0.12817287 0.52017998)
        Pressure : (-2.520116 0.12776804 0.5190609)
        Viscous  : (-0.002146799 0.00040483551 0.0011190765)


Time = 3

smoothSolver:  Solving for Ux, Initial residual = 0.01956098, Final residual = 0.00033102981, No Iterations 2
smoothSolver:  Solving for Uy, Initial residual = 0.039154306, Final residual = 0.0008626544, No Iterations 2
smoothSolver:  Solving for Uz, Initial residual = 0.043587779, Final residual = 0.00075234511, No Iterations 2
GAMG:  Solving for p, Initial residual = 0.28083405, Final residual = 0.0018235673, No Iterations 3
GAMG:  Solving for p, Initial residual = 0.019678231, Final residual = 0.00018923532, No Iterations 3
GAMG:  Solving for p, Initial residual = 0.0029785848, Final residual = 2.192375e-05, No Iterations 4
GAMG:  Solving for p, Initial residual = 0.00063300695, Final residual = 5.1313639e-06, No Iterations 4
GAMG:  Solving for p, Initial residual = 0.00016285765, Final residual = 1.3363786e-06, No Iterations 4
GAMG:  Solving for p, Initial residual = 4.6396823e-05, Final residual = 3.7122428e-07, No Iterations 4
time step continuity errors : sum local = 1.2236083e-07, global = -8.2092453e-09, cumulative = -2.5119489e-08
smoothSolver:  Solving for omega, Initial residual = 0.33368691, Final residual = 0.020779477, No Iterations 3
smoothSolver:  Solving for k, Initial residual = 0.13588765, Final residual = 0.0068485759, No Iterations 3
ExecutionTime = 4.491 s  ClockTime = 4 s

forces forces write:
    Sum of forces
        Total    : (0.12755084 4.0607261 -0.13117649)
        Pressure : (0.12648235 4.0567104 -0.13077954)
        Viscous  : (0.0010684946 0.0040157525 -0.00039695322)
    Sum of moments
        Total    : (-2.5769348 0.13848569 0.4766069)
        Pressure : (-2.5747346 0.13787278 0.4753469)
        Viscous  : (-0.0022002762 0.00061290752 0.0012599986)


Time = 4

smoothSolver:  Solving for Ux, Initial residual = 0.020258092, Final residual = 0.00041459688, No Iterations 2
smoothSolver:  Solving for Uy, Initial residual = 0.039142988, Final residual = 0.0011447312, No Iterations 2
smoothSolver:  Solving for Uz, Initial residual = 0.038857412, Final residual = 0.00084380718, No Iterations 2
GAMG:  Solving for p, Initial residual = 0.27765799, Final residual = 0.0021251919, No Iterations 3
GAMG:  Solving for p, Initial residual = 0.021751458, Final residual = 0.00014102678, No Iterations 4
GAMG:  Solving for p, Initial residual = 0.0025916176, Final residual = 2.3638173e-05, No Iterations 4
GAMG:  Solving for p, Initial residual = 0.00052287427, Final residual = 5.1926026e-06, No Iterations 4
GAMG:  Solving for p, Initial residual = 0.00012859544, Final residual = 1.1634209e-06, No Iterations 4
GAMG:  Solving for p, Initial residual = 3.5656325e-05, Final residual = 3.1509971e-07, No Iterations 4
time step continuity errors : sum local = 1.0024687e-07, global = 3.2973318e-09, cumulative = -2.1822157e-08
smoothSolver:  Solving for omega, Initial residual = 0.24740374, Final residual = 0.015713561, No Iterations 3
smoothSolver:  Solving for k, Initial residual = 0.094070517, Final residual = 0.0052790113, No Iterations 3
ExecutionTime = 5.621 s  ClockTime = 5 s

forces forces write:
    Sum of forces
        Total    : (0.06960173 3.8071772 -0.14122017)
        Pressure : (0.068362301 3.8036938 -0.14095682)
        Viscous  : (0.0012394282 0.0034834814 -0.0002633553)
    Sum of moments
        Total    : (-2.4153229 0.10484713 0.40774781)
        Pressure : (-2.4134675 0.10415718 0.40640772)
        Viscous  : (-0.001855473 0.00068994124 0.0013400859)


Time = 5

smoothSolver:  Solving for Ux, Initial residual = 0.013733469, Final residual = 0.00027227402, No Iterations 2
smoothSolver:  Solving for Uy, Initial residual = 0.025271001, Final residual = 0.00066204869, No Iterations 2
smoothSolver:  Solving for Uz, Initial residual = 0.029166492, Final residual = 0.00061440545, No Iterations 2
GAMG:  Solving for p, Initial residual = 0.29519122, Final residual = 0.0028094612, No Iterations 3
GAMG:  Solving for p, Initial residual = 0.022875695, Final residual = 0.00016094385, No Iterations 4
GAMG:  Solving for p, Initial residual = 0.0025229005, Final residual = 1.3437521e-05, No Iterations 5
GAMG:  Solving for p, Initial residual = 0.00045603689, Final residual = 3.3101454e-06, No Iterations 4
GAMG:  Solving for p, Initial residual = 0.00011096064, Final residual = 8.0669798e-07, No Iterations 4
GAMG:  Solving for p, Initial residual = 2.9489666e-05, Final residual = 2.0951957e-07, No Iterations 4
time step continuity errors : sum local = 7.5601591e-08, global = 2.8522362e-09, cumulative = -1.8969921e-08
smoothSolver:  Solving for omega, Initial residual = 0.19404094, Final residual = 0.012484404, No Iterations 3
smoothSolver:  Solving for k, Initial residual = 0.071708729, Final residual = 0.0042770303, No Iterations 3
ExecutionTime = 6.581 s  ClockTime = 6 s

forces forces write:
    Sum of forces
        Total    : (-0.0041262022 3.5348251 -0.15268425)
        Pressure : (-0.0054832637 3.5319991 -0.1525442)
        Viscous  : (0.0013570615 0.0028260403 -0.00014005349)
    Sum of moments
        Total    : (-2.2424151 0.059810587 0.36966622)
        Pressure : (-2.2409729 0.059071733 0.36827973)
        Viscous  : (-0.001442245 0.00073885441 0.0013864969)


Time = 6

smoothSolver:  Solving for Ux, Initial residual = 0.0092970477, Final residual = 0.00019746114, No Iterations 2
smoothSolver:  Solving for Uy, Initial residual = 0.019106448, Final residual = 0.00045302534, No Iterations 2
smoothSolver:  Solving for Uz, Initial residual = 0.025528773, Final residual = 0.00057662744, No Iterations 2
GAMG:  Solving for p, Initial residual = 0.22805499, Final residual = 0.0017828075, No Iterations 3
GAMG:  Solving for p, Initial residual = 0.017394815, Final residual = 9.1104843e-05, No Iterations 4
GAMG:  Solving for p, Initial residual = 0.0021253381, Final residual = 1.641012e-05, No Iterations 4
GAMG:  Solving for p, Initial residual = 0.0004224274, Final residual = 3.6504713e-06, No Iterations 4
GAMG:  Solving for p, Initial residual = 0.00010613016, Final residual = 8.8230274e-07, No Iterations 4
GAMG:  Solving for p, Initial residual = 2.9266107e-05, Final residual = 2.2384733e-07, No Iterations 4
time step continuity errors : sum local = 7.8981226e-08, global = 3.7272798e-09, cumulative = -1.5242641e-08
smoothSolver:  Solving for omega, Initial residual = 0.15807366, Final residual = 0.010262695, No Iterations 3
smoothSolver:  Solving for k, Initial residual = 0.057982524, Final residual = 0.0035869145, No Iterations 3
ExecutionTime = 7.801 s  ClockTime = 8 s

forces forces write:
    Sum of forces
        Total    : (-0.031856804 3.4387661 -0.15586501)
        Pressure : (-0.033390848 3.4364175 -0.15582084)
        Viscous  : (0.0015340432 0.0023485215 -4.4168436e-05)
    Sum of moments
        Total    : (-2.1820555 0.040912673 0.39441925)
        Pressure : (-2.1809065 0.040091343 0.39299346)
        Viscous  : (-0.0011490615 0.00082133012 0.001425791)


Time = 7

smoothSolver:  Solving for Ux, Initial residual = 0.010730454, Final residual = 0.00026290277, No Iterations 2
smoothSolver:  Solving for Uy, Initial residual = 0.022294, Final residual = 0.00067471769, No Iterations 2
smoothSolver:  Solving for Uz, Initial residual = 0.026831326, Final residual = 0.00069345464, No Iterations 2
GAMG:  Solving for p, Initial residual = 0.19109898, Final residual = 0.0013573337, No Iterations 3
GAMG:  Solving for p, Initial residual = 0.014182628, Final residual = 7.6358781e-05, No Iterations 4
GAMG:  Solving for p, Initial residual = 0.0017895528, Final residual = 1.4952069e-05, No Iterations 4
GAMG:  Solving for p, Initial residual = 0.00036756241, Final residual = 3.347856e-06, No Iterations 4
GAMG:  Solving for p, Initial residual = 9.4169669e-05, Final residual = 7.9836884e-07, No Iterations 4
GAMG:  Solving for p, Initial residual = 2.6333231e-05, Final residual = 2.2550965e-07, No Iterations 4
time step continuity errors : sum local = 7.1277054e-08, global = -8.6892477e-10, cumulative = -1.6111566e-08
smoothSolver:  Solving for omega, Initial residual = 0.13233414, Final residual = 0.0086481057, No Iterations 3
smoothSolver:  Solving for k, Initial residual = 0.048739172, Final residual = 0.003081491, No Iterations 3
ExecutionTime = 8.814 s  ClockTime = 9 s

forces forces write:
    Sum of forces
        Total    : (0.0033269844 3.5132615 -0.14598241)
        Pressure : (0.0015286977 3.5111593 -0.14600646)
        Viscous  : (0.0017982867 0.0021021622 2.4046939e-05)
    Sum of moments
        Total    : (-2.2314771 0.058620244 0.46397003)
        Pressure : (-2.230473 0.057664769 0.46249317)
        Viscous  : (-0.0010041315 0.000955475 0.0014768548)


Time = 8

smoothSolver:  Solving for Ux, Initial residual = 0.0098197806, Final residual = 0.0002303112, No Iterations 2
smoothSolver:  Solving for Uy, Initial residual = 0.0161467, Final residual = 0.0004959271, No Iterations 2
smoothSolver:  Solving for Uz, Initial residual = 0.022449579, Final residual = 0.00057585896, No Iterations 2
GAMG:  Solving for p, Initial residual = 0.18709219, Final residual = 0.0017086933, No Iterations 3
GAMG:  Solving for p, Initial residual = 0.01610879, Final residual = 0.0001046986, No Iterations 4
GAMG:  Solving for p, Initial residual = 0.0019011439, Final residual = 1.7804811e-05, No Iterations 4
GAMG:  Solving for p, Initial residual = 0.00036188479, Final residual = 3.434184e-06, No Iterations 4
GAMG:  Solving for p, Initial residual = 8.6631933e-05, Final residual = 6.9532621e-07, No Iterations 4
GAMG:  Solving for p, Initial residual = 2.3221691e-05, Final residual = 1.7396409e-07, No Iterations 4
time step continuity errors : sum local = 5.0817172e-08, global = -2.0125974e-09, cumulative = -1.8124163e-08
smoothSolver:  Solving for omega, Initial residual = 0.11309953, Final residual = 0.0074266694, No Iterations 3
smoothSolver:  Solving for k, Initial residual = 0.042091799, Final residual = 0.0026944165, No Iterations 3
ExecutionTime = 9.745 s  ClockTime = 10 s

forces forces write:
    Sum of forces
        Total    : (0.065433229 3.6424893 -0.12913676)
        Pressure : (0.063355116 3.6404482 -0.12920637)
        Viscous  : (0.0020781125 0.0020410728 6.9613201e-05)
    Sum of moments
        Total    : (-2.3164045 0.092536256 0.52541998)
        Pressure : (-2.3154294 0.09143221 0.52388108)
        Viscous  : (-0.00097508733 0.0011040461 0.0015389011)


Time = 9

smoothSolver:  Solving for Ux, Initial residual = 0.0076547316, Final residual = 0.00017302528, No Iterations 2
smoothSolver:  Solving for Uy, Initial residual = 0.0097466515, Final residual = 0.00025884365, No Iterations 2
smoothSolver:  Solving for Uz, Initial residual = 0.017283538, Final residual = 0.00041478281, No Iterations 2
GAMG:  Solving for p, Initial residual = 0.16254984, Final residual = 0.0013797151, No Iterations 3
GAMG:  Solving for p, Initial residual = 0.01468365, Final residual = 8.050961e-05, No Iterations 4
GAMG:  Solving for p, Initial residual = 0.0017843725, Final residual = 1.5714829e-05, No Iterations 4
GAMG:  Solving for p, Initial residual = 0.00036265691, Final residual = 3.2895706e-06, No Iterations 4
GAMG:  Solving for p, Initial residual = 9.0210087e-05, Final residual = 8.0856296e-07, No Iterations 4
GAMG:  Solving for p, Initial residual = 2.5371384e-05, Final residual = 2.0848201e-07, No Iterations 4
time step continuity errors : sum local = 5.7853517e-08, global = -2.8647182e-09, cumulative = -2.0988881e-08
smoothSolver:  Solving for omega, Initial residual = 0.098226786, Final residual = 0.006472723, No Iterations 3
smoothSolver:  Solving for k, Initial residual = 0.037088514, Final residual = 0.0023887683, No Iterations 3
ExecutionTime = 10.655 s  ClockTime = 10 s

forces forces write:
    Sum of forces
        Total    : (0.10518253 3.7241217 -0.11671883)
        Pressure : (0.1028923 3.7220325 -0.11681673)
        Viscous  : (0.0022902282 0.002089158 9.7895338e-05)
    Sum of moments
        Total    : (-2.3701086 0.11461851 0.53731432)
        Pressure : (-2.3690985 0.11339313 0.535715)
        Viscous  : (-0.0010101107 0.0012253834 0.0015993287)


Time = 10

smoothSolver:  Solving for Ux, Initial residual = 0.0074538376, Final residual = 0.00018283654, No Iterations 2
smoothSolver:  Solving for Uy, Initial residual = 0.012062263, Final residual = 0.00038126303, No Iterations 2
smoothSolver:  Solving for Uz, Initial residual = 0.016641457, Final residual = 0.00041467151, No Iterations 2
GAMG:  Solving for p, Initial residual = 0.14476695, Final residual = 0.0010111607, No Iterations 3
GAMG:  Solving for p, Initial residual = 0.0113182, Final residual = 9.2475939e-05, No Iterations 3
GAMG:  Solving for p, Initial residual = 0.0014707647, Final residual = 6.6438593e-06, No Iterations 4
GAMG:  Solving for p, Initial residual = 0.00030646788, Final residual = 2.7439746e-06, No Iterations 3
GAMG:  Solving for p, Initial residual = 7.953431e-05, Final residual = 5.2733421e-07, No Iterations 4
GAMG:  Solving for p, Initial residual = 2.2934309e-05, Final residual = 1.4077747e-07, No Iterations 4
time step continuity errors : sum local = 3.9265704e-08, global = -3.7285029e-09, cumulative = -2.4717384e-08
smoothSolver:  Solving for omega, Initial residual = 0.086413229, Final residual = 0.0057088881, No Iterations 3
smoothSolver:  Solving for k, Initial residual = 0.033186638, Final residual = 0.002141658, No Iterations 3
ExecutionTime = 11.655 s  ClockTime = 11 s

forces forces write:
    Sum of forces
        Total    : (0.10046099 3.7292236 -0.11574868)
        Pressure : (0.098046368 3.7270418 -0.11587416)
        Viscous  : (0.0024146223 0.0021817443 0.00012547769)
    Sum of moments
        Total    : (-2.3730787 0.11240838 0.49932363)
        Pressure : (-2.3720139 0.11110283 0.49767262)
        Viscous  : (-0.0010647905 0.0013055497 0.0016510056)


Time = 11

smoothSolver:  Solving for Ux, Initial residual = 0.0067313322, Final residual = 0.0001687344, No Iterations 2
smoothSolver:  Solving for Uy, Initial residual = 0.011807139, Final residual = 0.0003824718, No Iterations 2
smoothSolver:  Solving for Uz, Initial residual = 0.016108099, Final residual = 0.00041048048, No Iterations 2
GAMG:  Solving for p, Initial residual = 0.1423017, Final residual = 0.0012207351, No Iterations 3
GAMG:  Solving for p, Initial residual = 0.011952234, Final residual = 6.931576e-05, No Iterations 4
GAMG:  Solving for p, Initial residual = 0.001451218, Final residual = 1.1577666e-05, No Iterations 4
GAMG:  Solving for p, Initial residual = 0.00029579468, Final residual = 2.3913561e-06, No Iterations 4
GAMG:  Solving for p, Initial residual = 7.2341122e-05, Final residual = 5.7484194e-07, No Iterations 4
GAMG:  Solving for p, Initial residual = 2.0249808e-05, Final residual = 1.5016326e-07, No Iterations 4
time step continuity errors : sum local = 4.3942582e-08, global = 1.5948886e-09, cumulative = -2.3122495e-08
smoothSolver:  Solving for omega, Initial residual = 0.076827182, Final residual = 0.0050854222, No Iterations 3
smoothSolver:  Solving for k, Initial residual = 0.030058195, Final residual = 0.0019388576, No Iterations 3
ExecutionTime = 12.505 s  ClockTime = 12 s

forces forces write:
    Sum of forces
        Total    : (0.065763684 3.6904106 -0.1244359)
        Pressure : (0.063271657 3.6881423 -0.12460108)
        Viscous  : (0.0024920266 0.002268212 0.00016517776)
    Sum of moments
        Total    : (-2.3469477 0.093807873 0.44714982)
        Pressure : (-2.345839 0.09244498 0.44545507)
        Viscous  : (-0.0011087168 0.0013628937 0.0016947504)


Time = 12

smoothSolver:  Solving for Ux, Initial residual = 0.0055425113, Final residual = 0.00014127943, No Iterations 2
smoothSolver:  Solving for Uy, Initial residual = 0.0090142653, Final residual = 0.00026555891, No Iterations 2
smoothSolver:  Solving for Uz, Initial residual = 0.014964439, Final residual = 0.0003901398, No Iterations 2
GAMG:  Solving for p, Initial residual = 0.1263695, Final residual = 0.0010722531, No Iterations 3
GAMG:  Solving for p, Initial residual = 0.010761126, Final residual = 5.9693465e-05, No Iterations 4
GAMG:  Solving for p, Initial residual = 0.0012636094, Final residual = 9.6027944e-06, No Iterations 4
GAMG:  Solving for p, Initial residual = 0.00025007819, Final residual = 1.92423e-06, No Iterations 4
GAMG:  Solving for p, Initial residual = 5.8080261e-05, Final residual = 4.3135063e-07, No Iterations 4
GAMG:  Solving for p, Initial residual = 1.5651018e-05, Final residual = 1.096532e-07, No Iterations 4
time step continuity errors : sum local = 3.2758758e-08, global = 1.3125974e-09, cumulative = -2.1809898e-08
smoothSolver:  Solving for omega, Initial residual = 0.068915995, Final residual = 0.004568806, No Iterations 3
smoothSolver:  Solving for k, Initial residual = 0.027495593, Final residual = 0.00177053, No Iterations 3
ExecutionTime = 13.565 s  ClockTime = 13 s

forces forces write:
    Sum of forces
        Total    : (0.032683854 3.6533286 -0.13453564)
        Pressure : (0.030099165 3.6510182 -0.1347577)
        Viscous  : (0.0025846885 0.0023103289 0.00022205283)
    Sum of moments
        Total    : (-2.3223902 0.075833028 0.42003858)
        Pressure : (-2.3212677 0.074405429 0.41830266)
        Viscous  : (-0.0011224574 0.0014275999 0.001735912)


Time = 13

smoothSolver:  Solving for Ux, Initial residual = 0.0055667228, Final residual = 0.00014821336, No Iterations 2
smoothSolver:  Solving for Uy, Initial residual = 0.0083737766, Final residual = 0.00024028435, No Iterations 2
smoothSolver:  Solving for Uz, Initial residual = 0.014815621, Final residual = 0.00040397824, No Iterations 2
GAMG:  Solving for p, Initial residual = 0.10732246, Final residual = 0.00078696393, No Iterations 3
GAMG:  Solving for p, Initial residual = 0.0085399405, Final residual = 6.5139027e-05, No Iterations 3
GAMG:  Solving for p, Initial residual = 0.0010152457, Final residual = 4.31791e-06, No Iterations 4
GAMG:  Solving for p, Initial residual = 0.0001977445, Final residual = 1.6591681e-06, No Iterations 3
GAMG:  Solving for p, Initial residual = 4.7009035e-05, Final residual = 2.8507621e-07, No Iterations 4
GAMG:  Solving for p, Initial residual = 1.2490977e-05, Final residual = 6.8956328e-08, No Iterations 4
time step continuity errors : sum local = 2.0081572e-08, global = 1.5186428e-09, cumulative = -2.0291255e-08
smoothSolver:  Solving for omega, Initial residual = 0.062292163, Final residual = 0.0041351142, No Iterations 3
smoothSolver:  Solving for k, Initial residual = 0.025357131, Final residual = 0.0016293102, No Iterations 3
ExecutionTime = 14.445 s  ClockTime = 14 s

forces forces write:
    Sum of forces
        Total    : (0.023242726 3.6409333 -0.13851859)
        Pressure : (0.020506963 3.6386481 -0.1388126)
        Viscous  : (0.0027357634 0.0022851669 0.00029401039)
    Sum of moments
        Total    : (-2.315217 0.070292366 0.43136087)
        Pressure : (-2.314124 0.068766606 0.42958209)
        Viscous  : (-0.0010930407 0.00152576 0.0017787809)


Time = 14

smoothSolver:  Solving for Ux, Initial residual = 0.0058276231, Final residual = 0.00015696414, No Iterations 2
smoothSolver:  Solving for Uy, Initial residual = 0.0074554485, Final residual = 0.00022106493, No Iterations 2
smoothSolver:  Solving for Uz, Initial residual = 0.01383485, Final residual = 0.00039375797, No Iterations 2
GAMG:  Solving for p, Initial residual = 0.10177448, Final residual = 0.00081254668, No Iterations 3
GAMG:  Solving for p, Initial residual = 0.0078128061, Final residual = 4.6082701e-05, No Iterations 4
GAMG:  Solving for p, Initial residual = 0.00092757126, Final residual = 7.7538553e-06, No Iterations 4
GAMG:  Solving for p, Initial residual = 0.00018573227, Final residual = 1.4567886e-06, No Iterations 4
GAMG:  Solving for p, Initial residual = 4.4204904e-05, Final residual = 3.2386604e-07, No Iterations 4
GAMG:  Solving for p, Initial residual = 1.2442958e-05, Final residual = 7.3238462e-08, No Iterations 4
time step continuity errors : sum local = 2.0483361e-08, global = -6.1373616e-10, cumulative = -2.0904991e-08
smoothSolver:  Solving for omega, Initial residual = 0.056674776, Final residual = 0.0037668692, No Iterations 3
smoothSolver:  Solving for k, Initial residual = 0.023547862, Final residual = 0.0015099434, No Iterations 3
ExecutionTime = 15.554 s  ClockTime = 15 s

forces forces write:
    Sum of forces
        Total    : (0.037550634 3.6506376 -0.13457944)
        Pressure : (0.034594784 3.6484507 -0.13495431)
        Viscous  : (0.0029558494 0.0021868683 0.00037486264)
    Sum of moments
        Total    : (-2.323679 0.077209087 0.46499194)
        Pressure : (-2.3226642 0.075537521 0.46316782)
        Viscous  : (-0.0010147519 0.0016715657 0.0018241178)


Time = 15

smoothSolver:  Solving for Ux, Initial residual = 0.0053862308, Final residual = 0.00014384756, No Iterations 2
smoothSolver:  Solving for Uy, Initial residual = 0.0058881807, Final residual = 0.0001751224, No Iterations 2
smoothSolver:  Solving for Uz, Initial residual = 0.012290695, Final residual = 0.00035311005, No Iterations 2
GAMG:  Solving for p, Initial residual = 0.09508441, Final residual = 0.00078988985, No Iterations 3
GAMG:  Solving for p, Initial residual = 0.0080439071, Final residual = 4.9495296e-05, No Iterations 4
GAMG:  Solving for p, Initial residual = 0.0009554522, Final residual = 8.0154627e-06, No Iterations 4
GAMG:  Solving for p, Initial residual = 0.00019228206, Final residual = 1.4706439e-06, No Iterations 4
GAMG:  Solving for p, Initial residual = 4.5110277e-05, Final residual = 3.1278644e-07, No Iterations 4
GAMG:  Solving for p, Initial residual = 1.2565288e-05, Final residual = 7.2643655e-08, No Iterations 4
time step continuity errors : sum local = 1.9685212e-08, global = -5.4732722e-10, cumulative = -2.1452319e-08
smoothSolver:  Solving for omega, Initial residual = 0.051857974, Final residual = 0.0034509331, No Iterations 3
smoothSolver:  Solving for k, Initial residual = 0.02199875, Final residual = 0.0014081429, No Iterations 3
ExecutionTime = 16.439 s  ClockTime = 16 s

forces forces write:
    Sum of forces
        Total    : (0.060252267 3.6681728 -0.12633567)
        Pressure : (0.057018286 3.6661484 -0.12679634)
        Viscous  : (0.0032339801 0.0020244477 0.00046066895)
    Sum of moments
        Total    : (-2.3374017 0.088490303 0.49346747)
        Pressure : (-2.3365103 0.086628171 0.49159465)
        Viscous  : (-0.00089141153 0.0018621312 0.0018728266)


Time = 16

smoothSolver:  Solving for Ux, Initial residual = 0.0048303169, Final residual = 0.00013002999, No Iterations 2
smoothSolver:  Solving for Uy, Initial residual = 0.0060619824, Final residual = 0.0001808147, No Iterations 2
smoothSolver:  Solving for Uz, Initial residual = 0.011616748, Final residual = 0.00033016914, No Iterations 2
GAMG:  Solving for p, Initial residual = 0.085228296, Final residual = 0.00060516902, No Iterations 3
GAMG:  Solving for p, Initial residual = 0.0071611436, Final residual = 6.4323725e-05, No Iterations 3
GAMG:  Solving for p, Initial residual = 0.00088509019, Final residual = 7.8887374e-06, No Iterations 4
GAMG:  Solving for p, Initial residual = 0.00018092364, Final residual = 1.4300872e-06, No Iterations 4
GAMG:  Solving for p, Initial residual = 4.2149018e-05, Final residual = 3.0015762e-07, No Iterations 4
GAMG:  Solving for p, Initial residual = 1.1708793e-05, Final residual = 7.0754077e-08, No Iterations 4
time step continuity errors : sum local = 1.8974599e-08, global = -7.0232084e-10, cumulative = -2.2154639e-08
smoothSolver:  Solving for omega, Initial residual = 0.047690511, Final residual = 0.0031773147, No Iterations 3
smoothSolver:  Solving for k, Initial residual = 0.020661216, Final residual = 0.0013205779, No Iterations 3
ExecutionTime = 17.558 s  ClockTime = 17 s

forces forces write:
    Sum of forces
        Total    : (0.075304533 3.6825984 -0.11933601)
        Pressure : (0.071736742 3.6807883 -0.11989176)
        Viscous  : (0.003567791 0.0018101369 0.00055574785)
    Sum of moments
        Total    : (-2.3477652 0.095854463 0.49984799)
        Pressure : (-2.3470348 0.093755231 0.49792061)
        Viscous  : (-0.00073039771 0.0020992325 0.0019273785)


Time = 17

smoothSolver:  Solving for Ux, Initial residual = 0.004486063, Final residual = 0.00012100252, No Iterations 2
smoothSolver:  Solving for Uy, Initial residual = 0.0062413418, Final residual = 0.0001870694, No Iterations 2
smoothSolver:  Solving for Uz, Initial residual = 0.011412309, Final residual = 0.00032147697, No Iterations 2
GAMG:  Solving for p, Initial residual = 0.079585716, Final residual = 0.00057890777, No Iterations 3
GAMG:  Solving for p, Initial residual = 0.006448116, Final residual = 5.9944269e-05, No Iterations 3
GAMG:  Solving for p, Initial residual = 0.00080550137, Final residual = 5.1959868e-06, No Iterations 4
GAMG:  Solving for p, Initial residual = 0.00016816839, Final residual = 1.0096359e-06, No Iterations 4
GAMG:  Solving for p, Initial residual = 4.0043255e-05, Final residual = 2.283526e-07, No Iterations 4
GAMG:  Solving for p, Initial residual = 1.1190028e-05, Final residual = 6.0390839e-08, No Iterations 4
time step continuity errors : sum local = 1.6379354e-08, global = 1.0028115e-09, cumulative = -2.1151828e-08
smoothSolver:  Solving for omega, Initial residual = 0.044055255, Final residual = 0.0029384297, No Iterations 3
smoothSolver:  Solving for k, Initial residual = 0.019495544, Final residual = 0.0012445571, No Iterations 3
ExecutionTime = 18.458 s  ClockTime = 18 s

forces forces write:
    Sum of forces
        Total    : (0.076748613 3.6898538 -0.11684588)
        Pressure : (0.072767521 3.6883145 -0.1175203)
        Viscous  : (0.0039810916 0.0015392917 0.0006744194)
    Sum of moments
        Total    : (-2.3517828 0.096387936 0.48648924)
        Pressure : (-2.3512542 0.093988203 0.4844928)
        Viscous  : (-0.00052858749 0.0023997329 0.0019964437)


Time = 18

smoothSolver:  Solving for Ux, Initial residual = 0.0042056746, Final residual = 0.0001111867, No Iterations 2
smoothSolver:  Solving for Uy, Initial residual = 0.0054678986, Final residual = 0.00016046614, No Iterations 2
smoothSolver:  Solving for Uz, Initial residual = 0.010904526, Final residual = 0.00031309007, No Iterations 2
GAMG:  Solving for p, Initial residual = 0.074998542, Final residual = 0.00052469767, No Iterations 3
GAMG:  Solving for p, Initial residual = 0.0059365784, Final residual = 5.4697328e-05, No Iterations 3
GAMG:  Solving for p, Initial residual = 0.00073153593, Final residual = 6.5857309e-06, No Iterations 4
GAMG:  Solving for p, Initial residual = 0.00014790583, Final residual = 1.2431849e-06, No Iterations 4
GAMG:  Solving for p, Initial residual = 3.4908289e-05, Final residual = 2.7195295e-07, No Iterations 4
GAMG:  Solving for p, Initial residual = 9.5257309e-06, Final residual = 6.6735446e-08, No Iterations 4
time step continuity errors : sum local = 1.8347716e-08, global = 6.203491e-10, cumulative = -2.0531479e-08
smoothSolver:  Solving for omega, Initial residual = 0.040862454, Final residual = 0.0027283592, No Iterations 3
smoothSolver:  Solving for k, Initial residual = 0.018472512, Final residual = 0.0011780675, No Iterations 3
ExecutionTime = 19.518 s  ClockTime = 19 s

forces forces write:
    Sum of forces
        Total    : (0.069386651 3.6906817 -0.11835909)
        Pressure : (0.064925283 3.6894605 -0.11916999)
        Viscous  : (0.0044613684 0.001221231 0.00081089936)
    Sum of moments
        Total    : (-2.3507702 0.092654392 0.46842756)
        Pressure : (-2.3504681 0.089919721 0.46634668)
        Viscous  : (-0.00030211817 0.0027346708 0.0020808845)


Time = 19

smoothSolver:  Solving for Ux, Initial residual = 0.0041065974, Final residual = 0.00010819384, No Iterations 2
smoothSolver:  Solving for Uy, Initial residual = 0.0044502191, Final residual = 0.00012505198, No Iterations 2
smoothSolver:  Solving for Uz, Initial residual = 0.010404819, Final residual = 0.00030904068, No Iterations 2
GAMG:  Solving for p, Initial residual = 0.06831329, Final residual = 0.00045430549, No Iterations 3
GAMG:  Solving for p, Initial residual = 0.0052857007, Final residual = 3.9809136e-05, No Iterations 3
GAMG:  Solving for p, Initial residual = 0.00063720518, Final residual = 4.52296e-06, No Iterations 4
GAMG:  Solving for p, Initial residual = 0.00012845352, Final residual = 8.5180592e-07, No Iterations 4
GAMG:  Solving for p, Initial residual = 3.069641e-05, Final residual = 1.9711195e-07, No Iterations 4
GAMG:  Solving for p, Initial residual = 8.5362791e-06, Final residual = 4.7727558e-08, No Iterations 4
time step continuity errors : sum local = 1.3104803e-08, global = 4.5384705e-10, cumulative = -2.0077632e-08
smoothSolver:  Solving for omega, Initial residual = 0.038039367, Final residual = 0.0025424635, No Iterations 3
smoothSolver:  Solving for k, Initial residual = 0.017569081, Final residual = 0.0011194999, No Iterations 3
ExecutionTime = 20.368 s  ClockTime = 20 s

forces forces write:
    Sum of forces
        Total    : (0.062154783 3.6882332 -0.12087225)
        Pressure : (0.057119053 3.6873975 -0.12184611)
        Viscous  : (0.0050357299 0.00083562049 0.00097386058)
    Sum of moments
        Total    : (-2.3479374 0.089139151 0.45986795)
        Pressure : (-2.3478935 0.086026263 0.4576828)
        Viscous  : (-4.3828438e-05 0.0031128881 0.0021851539)


Time = 20

smoothSolver:  Solving for Ux, Initial residual = 0.0041103245, Final residual = 0.000109884, No Iterations 2
smoothSolver:  Solving for Uy, Initial residual = 0.0039285143, Final residual = 0.00010932528, No Iterations 2
smoothSolver:  Solving for Uz, Initial residual = 0.0099556523, Final residual = 0.00030317988, No Iterations 2
GAMG:  Solving for p, Initial residual = 0.062666457, Final residual = 0.00042963016, No Iterations 3
GAMG:  Solving for p, Initial residual = 0.0047157174, Final residual = 2.997257e-05, No Iterations 3
GAMG:  Solving for p, Initial residual = 0.00057009684, Final residual = 5.4349898e-06, No Iterations 3
GAMG:  Solving for p, Initial residual = 0.00012045879, Final residual = 6.6541704e-07, No Iterations 4
GAMG:  Solving for p, Initial residual = 2.8809394e-05, Final residual = 2.6965288e-07, No Iterations 3
GAMG:  Solving for p, Initial residual = 8.1240774e-06, Final residual = 5.2843361e-08, No Iterations 4
time step continuity errors : sum local = 1.4298222e-08, global = 8.5591993e-10, cumulative = -1.9221712e-08
smoothSolver:  Solving for omega, Initial residual = 0.035526746, Final residual = 0.0023768769, No Iterations 3
smoothSolver:  Solving for k, Initial residual = 0.016765782, Final residual = 0.0010675793, No Iterations 3
ExecutionTime = 21.438 s  ClockTime = 21 s

forces forces write:
    Sum of forces
        Total    : (0.060950077 3.6856743 -0.12158143)
        Pressure : (0.055237761 3.6853045 -0.12274744)
        Viscous  : (0.0057123155 0.00036980291 0.0011660021)
    Sum of moments
        Total    : (-2.3460721 0.088577626 0.46469599)
        Pressure : (-2.34632 0.085049613 0.4623881)
        Viscous  : (0.00024787006 0.0035280129 0.0023078951)


Time = 21

smoothSolver:  Solving for Ux, Initial residual = 0.0039749555, Final residual = 0.00010788614, No Iterations 2
smoothSolver:  Solving for Uy, Initial residual = 0.0036952151, Final residual = 0.00010507353, No Iterations 2
smoothSolver:  Solving for Uz, Initial residual = 0.0094728509, Final residual = 0.00029230068, No Iterations 2
GAMG:  Solving for p, Initial residual = 0.059249196, Final residual = 0.00040456624, No Iterations 3
GAMG:  Solving for p, Initial residual = 0.0045002093, Final residual = 2.2547723e-05, No Iterations 4
GAMG:  Solving for p, Initial residual = 0.00055793537, Final residual = 4.0072958e-06, No Iterations 4
GAMG:  Solving for p, Initial residual = 0.00011866555, Final residual = 8.0934834e-07, No Iterations 4
GAMG:  Solving for p, Initial residual = 2.9613123e-05, Final residual = 1.787713e-07, No Iterations 4
GAMG:  Solving for p, Initial residual = 8.3057848e-06, Final residual = 8.2056597e-08, No Iterations 3
time step continuity errors : sum local = 2.1800249e-08, global = -8.2647292e-10, cumulative = -2.0048185e-08
smoothSolver:  Solving for omega, Initial residual = 0.033277747, Final residual = 0.0022285584, No Iterations 3
smoothSolver:  Solving for k, Initial residual = 0.016047591, Final residual = 0.0010212762, No Iterations 3
ExecutionTime = 22.305 s  ClockTime = 22 s

forces forces write:
    Sum of forces
        Total    : (0.065867333 3.6849844 -0.11962617)
        Pressure : (0.059426423 3.6851364 -0.12099244)
        Viscous  : (0.0064409104 -0.00015200317 0.0013662731)
    Sum of moments
        Total    : (-2.3463567 0.090783475 0.47676439)
        Pressure : (-2.346903 0.086858572 0.47432741)
        Viscous  : (0.00054628024 0.0039249023 0.0024369772)


Time = 22

smoothSolver:  Solving for Ux, Initial residual = 0.0037707431, Final residual = 0.00010391517, No Iterations 2
smoothSolver:  Solving for Uy, Initial residual = 0.0037421168, Final residual = 0.0001089168, No Iterations 2
smoothSolver:  Solving for Uz, Initial residual = 0.0091006393, Final residual = 0.00028440108, No Iterations 2
GAMG:  Solving for p, Initial residual = 0.055626596, Final residual = 0.00036126834, No Iterations 3
GAMG:  Solving for p, Initial residual = 0.0042724012, Final residual = 2.1483992e-05, No Iterations 4
GAMG:  Solving for p, Initial residual = 0.00053169076, Final residual = 3.9561419e-06, No Iterations 4
GAMG:  Solving for p, Initial residual = 0.00011650724, Final residual = 8.0917826e-07, No Iterations 4
GAMG:  Solving for p, Initial residual = 2.8424522e-05, Final residual = 1.8262805e-07, No Iterations 4
GAMG:  Solving for p, Initial residual = 8.2923769e-06, Final residual = 4.5466396e-08, No Iterations 4
time step continuity errors : sum local = 1.1920235e-08, global = -3.8925302e-10, cumulative = -2.0437438e-08
smoothSolver:  Solving for omega, Initial residual = 0.031253617, Final residual = 0.0020949566, No Iterations 3
smoothSolver:  Solving for k, Initial residual = 0.015402192, Final residual = 0.00097976827, No Iterations 3
ExecutionTime = 23.425 s  ClockTime = 23 s

forces forces write:
    Sum of forces
        Total    : (0.073226795 3.6871068 -0.11605553)
        Pressure : (0.066022681 3.6878268 -0.11762917)
        Viscous  : (0.0072041142 -0.00071993211 0.0015736383)
    Sum of moments
        Total    : (-2.3488072 0.093883675 0.48704163)
        Pressure : (-2.3496516 0.089591629 0.48447368)
        Viscous  : (0.00084430759 0.004292046 0.0025679481)


Time = 23

smoothSolver:  Solving for Ux, Initial residual = 0.0036055965, Final residual = 9.9553593e-05, No Iterations 2
smoothSolver:  Solving for Uy, Initial residual = 0.0037371579, Final residual = 0.00010873035, No Iterations 2
smoothSolver:  Solving for Uz, Initial residual = 0.0088461856, Final residual = 0.00027754912, No Iterations 2
GAMG:  Solving for p, Initial residual = 0.051704646, Final residual = 0.0003273487, No Iterations 3
GAMG:  Solving for p, Initial residual = 0.0040025016, Final residual = 2.9629298e-05, No Iterations 3
GAMG:  Solving for p, Initial residual = 0.00051489255, Final residual = 4.1889559e-06, No Iterations 4
GAMG:  Solving for p, Initial residual = 0.0001166111, Final residual = 8.2700753e-07, No Iterations 4
GAMG:  Solving for p, Initial residual = 2.8561183e-05, Final residual = 1.8623252e-07, No Iterations 4
GAMG:  Solving for p, Initial residual = 8.522717e-06, Final residual = 4.6306316e-08, No Iterations 4
time step continuity errors : sum local = 1.2083501e-08, global = -4.376168e-10, cumulative = -2.0875055e-08
smoothSolver:  Solving for omega, Initial residual = 0.029424213, Final residual = 0.0019740907, No Iterations 3
smoothSolver:  Solving for k, Initial residual = 0.014820436, Final residual = 0.00094245372, No Iterations 3
ExecutionTime = 24.261 s  ClockTime = 24 s

forces forces write:
    Sum of forces
        Total    : (0.079172464 3.6911286 -0.11269668)
        Pressure : (0.071187839 3.6924446 -0.11448309)
        Viscous  : (0.0079846249 -0.0013159361 0.0017864149)
    Sum of moments
        Total    : (-2.3522264 0.096127109 0.49024999)
        Pressure : (-2.3533541 0.091510615 0.48755385)
        Viscous  : (0.0011277314 0.0046164942 0.0026961381)


Time = 24

smoothSolver:  Solving for Ux, Initial residual = 0.0035316508, Final residual = 9.6445526e-05, No Iterations 2
smoothSolver:  Solving for Uy, Initial residual = 0.0034433059, Final residual = 9.7619435e-05, No Iterations 2
smoothSolver:  Solving for Uz, Initial residual = 0.0085907409, Final residual = 0.00027055494, No Iterations 2
GAMG:  Solving for p, Initial residual = 0.048413918, Final residual = 0.00031392377, No Iterations 3
GAMG:  Solving for p, Initial residual = 0.0038274126, Final residual = 2.4016191e-05, No Iterations 3
GAMG:  Solving for p, Initial residual = 0.00047800468, Final residual = 4.0213773e-06, No Iterations 3
GAMG:  Solving for p, Initial residual = 0.00010818097, Final residual = 8.2946964e-07, No Iterations 3
GAMG:  Solving for p, Initial residual = 2.5882888e-05, Final residual = 2.174931e-07, No Iterations 3
GAMG:  Solving for p, Initial residual = 7.5482832e-06, Final residual = 5.9366287e-08, No Iterations 3
time step continuity errors : sum local = 1.5492913e-08, global = 2.9021659e-09, cumulative = -1.7972889e-08
smoothSolver:  Solving for omega, Initial residual = 0.027763782, Final residual = 0.0018642851, No Iterations 3
smoothSolver:  Solving for k, Initial residual = 0.014294327, Final residual = 0.0009088112, No Iterations 3
ExecutionTime = 25.331 s  ClockTime = 25 s

forces forces write:
    Sum of forces
        Total    : (0.082177452 3.6945191 -0.11076368)
        Pressure : (0.073343166 3.696491 -0.1127766)
        Viscous  : (0.0088342859 -0.0019718145 0.0020129154)
    Sum of moments
        Total    : (-2.3547544 0.0969823 0.48708234)
        Pressure : (-2.3561738 0.092045223 0.48425216)
        Viscous  : (0.0014193866 0.0049370768 0.0028301837)


Time = 25

smoothSolver:  Solving for Ux, Initial residual = 0.0034853267, Final residual = 9.4850355e-05, No Iterations 2
smoothSolver:  Solving for Uy, Initial residual = 0.0029769357, Final residual = 8.2032988e-05, No Iterations 2
smoothSolver:  Solving for Uz, Initial residual = 0.0083020842, Final residual = 0.00026239106, No Iterations 2
GAMG:  Solving for p, Initial residual = 0.045654251, Final residual = 0.00026885649, No Iterations 3
GAMG:  Solving for p, Initial residual = 0.0036532121, Final residual = 2.251533e-05, No Iterations 3
GAMG:  Solving for p, Initial residual = 0.00046977257, Final residual = 2.289895e-06, No Iterations 4
GAMG:  Solving for p, Initial residual = 0.00010453138, Final residual = 9.4091466e-07, No Iterations 3
GAMG:  Solving for p, Initial residual = 2.5750878e-05, Final residual = 1.8621464e-07, No Iterations 4
GAMG:  Solving for p, Initial residual = 7.3132032e-06, Final residual = 4.1331251e-08, No Iterations 4
time step continuity errors : sum local = 1.077201e-08, global = 4.8589839e-10, cumulative = -1.748699e-08
smoothSolver:  Solving for omega, Initial residual = 0.026251119, Final residual = 0.0017641755, No Iterations 3
smoothSolver:  Solving for k, Initial residual = 0.013816029, Final residual = 0.00087832934, No Iterations 3
ExecutionTime = 26.131 s  ClockTime = 26 s

forces forces write:
    Sum of forces
        Total    : (0.082960036 3.6951405 -0.11028925)
        Pressure : (0.073333636 3.6977637 -0.11249333)
        Viscous  : (0.0096264003 -0.0026232037 0.0022040795)
    Sum of moments
        Total    : (-2.3551021 0.096878421 0.48201136)
        Pressure : (-2.3567911 0.091685585 0.47905003)
        Viscous  : (0.0016889914 0.0051928361 0.002961334)


Time = 26

smoothSolver:  Solving for Ux, Initial residual = 0.003429967, Final residual = 9.3680333e-05, No Iterations 2
smoothSolver:  Solving for Uy, Initial residual = 0.0027171719, Final residual = 7.3083402e-05, No Iterations 2
smoothSolver:  Solving for Uz, Initial residual = 0.0080490958, Final residual = 0.00025496316, No Iterations 2
GAMG:  Solving for p, Initial residual = 0.042759435, Final residual = 0.00023020953, No Iterations 3
GAMG:  Solving for p, Initial residual = 0.0033519237, Final residual = 1.8138417e-05, No Iterations 3
GAMG:  Solving for p, Initial residual = 0.00044069447, Final residual = 4.2567408e-06, No Iterations 3
GAMG:  Solving for p, Initial residual = 0.00010203671, Final residual = 6.5057906e-07, No Iterations 4
GAMG:  Solving for p, Initial residual = 2.4978652e-05, Final residual = 1.58542e-07, No Iterations 4
GAMG:  Solving for p, Initial residual = 7.1512297e-06, Final residual = 3.9185101e-08, No Iterations 4
time step continuity errors : sum local = 1.0151979e-08, global = 4.7913134e-10, cumulative = -1.7007859e-08
smoothSolver:  Solving for omega, Initial residual = 0.024868307, Final residual = 0.0016725686, No Iterations 3
smoothSolver:  Solving for k, Initial residual = 0.013380747, Final residual = 0.00085070192, No Iterations 3
ExecutionTime = 27.231 s  ClockTime = 27 s

forces forces write:
    Sum of forces
        Total    : (0.083325954 3.6925627 -0.11036193)
        Pressure : (0.073064913 3.6958083 -0.11267754)
        Viscous  : (0.010261041 -0.0032456137 0.0023156098)
    Sum of moments
        Total    : (-2.3532319 0.096607831 0.47938255)
        Pressure : (-2.3551622 0.091264842 0.47629486)
        Viscous  : (0.0019302813 0.0053429885 0.0030876901)


Time = 27

smoothSolver:  Solving for Ux, Initial residual = 0.0033335075, Final residual = 9.1769169e-05, No Iterations 2
smoothSolver:  Solving for Uy, Initial residual = 0.0026569558, Final residual = 7.0115077e-05, No Iterations 2
smoothSolver:  Solving for Uz, Initial residual = 0.0078098721, Final residual = 0.00024652735, No Iterations 2
GAMG:  Solving for p, Initial residual = 0.040128245, Final residual = 0.00022019192, No Iterations 3
GAMG:  Solving for p, Initial residual = 0.003100795, Final residual = 1.6298526e-05, No Iterations 3
GAMG:  Solving for p, Initial residual = 0.00041428437, Final residual = 3.2447221e-06, No Iterations 3
GAMG:  Solving for p, Initial residual = 9.6377126e-05, Final residual = 7.1601753e-07, No Iterations 3
GAMG:  Solving for p, Initial residual = 2.4049803e-05, Final residual = 1.2690485e-07, No Iterations 4
GAMG:  Solving for p, Initial residual = 6.8756716e-06, Final residual = 5.662723e-08, No Iterations 3
time step continuity errors : sum local = 1.4539962e-08, global = -1.7757834e-09, cumulative = -1.8783642e-08
smoothSolver:  Solving for omega, Initial residual = 0.023597581, Final residual = 0.0015883203, No Iterations 3
smoothSolver:  Solving for k, Initial residual = 0.012982008, Final residual = 0.00082552014, No Iterations 3
ExecutionTime = 28.031 s  ClockTime = 28 s

forces forces write:
    Sum of forces
        Total    : (0.084525673 3.6884654 -0.11011924)
        Pressure : (0.073840617 3.6922504 -0.11244569)
        Viscous  : (0.010685056 -0.0037849508 0.0023264538)
    Sum of moments
        Total    : (-2.350465 0.096684274 0.4807646)
        Pressure : (-2.3525804 0.091316716 0.47756491)
        Viscous  : (0.002115403 0.0053675578 0.0031996883)


Time = 28

smoothSolver:  Solving for Ux, Initial residual = 0.0032400024, Final residual = 8.9691479e-05, No Iterations 2
smoothSolver:  Solving for Uy, Initial residual = 0.0026445774, Final residual = 6.8891754e-05, No Iterations 2
smoothSolver:  Solving for Uz, Initial residual = 0.0075873028, Final residual = 0.00023590537, No Iterations 2
GAMG:  Solving for p, Initial residual = 0.037890991, Final residual = 0.00020466675, No Iterations 3
GAMG:  Solving for p, Initial residual = 0.0029177226, Final residual = 1.891979e-05, No Iterations 3
GAMG:  Solving for p, Initial residual = 0.00039868179, Final residual = 2.2216097e-06, No Iterations 4
GAMG:  Solving for p, Initial residual = 9.2297046e-05, Final residual = 9.1201657e-07, No Iterations 3
GAMG:  Solving for p, Initial residual = 2.3121011e-05, Final residual = 2.0329399e-07, No Iterations 4
GAMG:  Solving for p, Initial residual = 6.7476803e-06, Final residual = 4.5294533e-08, No Iterations 4
time step continuity errors : sum local = 1.1525083e-08, global = -6.38425e-10, cumulative = -1.9422067e-08
smoothSolver:  Solving for omega, Initial residual = 0.022424177, Final residual = 0.0015105644, No Iterations 3
smoothSolver:  Solving for k, Initial residual = 0.012613742, Final residual = 0.00080244625, No Iterations 3
ExecutionTime = 29.12 s  ClockTime = 29 s

forces forces write:
    Sum of forces
        Total    : (0.086475622 3.6853815 -0.10927935)
        Pressure : (0.075603463 3.6896187 -0.11150275)
        Viscous  : (0.010872159 -0.0042371744 0.0022233965)
    Sum of moments
        Total    : (-2.3484964 0.097088807 0.48482123)
        Pressure : (-2.3507527 0.091806867 0.48152022)
        Viscous  : (0.002256262 0.0052819406 0.0033010031)


Time = 29

smoothSolver:  Solving for Ux, Initial residual = 0.0031827402, Final residual = 8.7757604e-05, No Iterations 2
smoothSolver:  Solving for Uy, Initial residual = 0.0025741806, Final residual = 6.7217934e-05, No Iterations 2
smoothSolver:  Solving for Uz, Initial residual = 0.0074189612, Final residual = 0.00022534178, No Iterations 2
GAMG:  Solving for p, Initial residual = 0.035734732, Final residual = 0.00018323177, No Iterations 3
GAMG:  Solving for p, Initial residual = 0.0027794669, Final residual = 1.7405105e-05, No Iterations 3
GAMG:  Solving for p, Initial residual = 0.00038718194, Final residual = 2.168916e-06, No Iterations 4
GAMG:  Solving for p, Initial residual = 9.1387017e-05, Final residual = 9.0933657e-07, No Iterations 3
GAMG:  Solving for p, Initial residual = 2.2905729e-05, Final residual = 2.0031535e-07, No Iterations 4
GAMG:  Solving for p, Initial residual = 6.7750051e-06, Final residual = 4.6319777e-08, No Iterations 4
time step continuity errors : sum local = 1.1707917e-08, global = -6.2199413e-10, cumulative = -2.0044061e-08
smoothSolver:  Solving for omega, Initial residual = 0.021335588, Final residual = 0.0014385378, No Iterations 3
smoothSolver:  Solving for k, Initial residual = 0.012272915, Final residual = 0.00078126399, No Iterations 3
ExecutionTime = 29.94 s  ClockTime = 30 s

forces forces write:
    Sum of forces
        Total    : (0.088176515 3.6848243 -0.108249)
        Pressure : (0.077337482 3.689416 -0.11027882)
        Viscous  : (0.010839033 -0.0045917765 0.0020298211)
    Sum of moments
        Total    : (-2.3482214 0.097516428 0.48896232)
        Pressure : (-2.3505881 0.092401935 0.48556497)
        Viscous  : (0.0023667076 0.0051144931 0.003397347)


Time = 30

smoothSolver:  Solving for Ux, Initial residual = 0.0031363637, Final residual = 8.5712363e-05, No Iterations 2
smoothSolver:  Solving for Uy, Initial residual = 0.0024181193, Final residual = 6.2824457e-05, No Iterations 2
smoothSolver:  Solving for Uz, Initial residual = 0.0072858959, Final residual = 0.00021552011, No Iterations 2
GAMG:  Solving for p, Initial residual = 0.033788821, Final residual = 0.0001751827, No Iterations 3
GAMG:  Solving for p, Initial residual = 0.0026533504, Final residual = 1.4081749e-05, No Iterations 3
GAMG:  Solving for p, Initial residual = 0.00037051094, Final residual = 3.5336641e-06, No Iterations 3
GAMG:  Solving for p, Initial residual = 8.9007679e-05, Final residual = 5.2920298e-07, No Iterations 4
GAMG:  Solving for p, Initial residual = 2.185129e-05, Final residual = 1.373292e-07, No Iterations 4
GAMG:  Solving for p, Initial residual = 6.4559259e-06, Final residual = 3.7600482e-08, No Iterations 4
time step continuity errors : sum local = 9.4599206e-09, global = -3.2690336e-10, cumulative = -2.0370965e-08
smoothSolver:  Solving for omega, Initial residual = 0.020323497, Final residual = 0.0013716358, No Iterations 3
smoothSolver:  Solving for k, Initial residual = 0.011956327, Final residual = 0.00076173916, No Iterations 3
ExecutionTime = 30.88 s  ClockTime = 31 s

forces forces write:
    Sum of forces
        Total    : (0.088906234 3.6863485 -0.10755083)
        Pressure : (0.078234912 3.6911829 -0.10932939)
        Viscous  : (0.010671322 -0.0048343884 0.0017785669)
    Sum of moments
        Total    : (-2.3493042 0.097724838 0.49128377)
        Pressure : (-2.3517328 0.092829655 0.48779955)
        Viscous  : (0.0024285682 0.0048951833 0.0034842193)


Time = 31

smoothSolver:  Solving for Ux, Initial residual = 0.003084115, Final residual = 8.3172952e-05, No Iterations 2
smoothSolver:  Solving for Uy, Initial residual = 0.0022343906, Final residual = 5.6458256e-05, No Iterations 2
smoothSolver:  Solving for Uz, Initial residual = 0.0071427563, Final residual = 0.00020662605, No Iterations 2
GAMG:  Solving for p, Initial residual = 0.031964381, Final residual = 0.00016419439, No Iterations 3
GAMG:  Solving for p, Initial residual = 0.0025015322, Final residual = 1.2642613e-05, No Iterations 3
GAMG:  Solving for p, Initial residual = 0.00034813137, Final residual = 2.4195664e-06, No Iterations 3
GAMG:  Solving for p, Initial residual = 8.2931719e-05, Final residual = 6.0248763e-07, No Iterations 3
GAMG:  Solving for p, Initial residual = 2.0554311e-05, Final residual = 1.9830613e-07, No Iterations 3
GAMG:  Solving for p, Initial residual = 6.0449388e-06, Final residual = 3.3422694e-08, No Iterations 4
time step continuity errors : sum local = 8.369757e-09, global = 8.4079314e-10, cumulative = -1.9530172e-08
smoothSolver:  Solving for omega, Initial residual = 0.019382109, Final residual = 0.0013093774, No Iterations 3
smoothSolver:  Solving for k, Initial residual = 0.011662301, Final residual = 0.0007437112, No Iterations 3
ExecutionTime = 31.71 s  ClockTime = 32 s

forces forces write:
    Sum of forces
        Total    : (0.088757197 3.6879371 -0.10733239)
        Pressure : (0.07832438 3.6929281 -0.10890029)
        Viscous  : (0.010432818 -0.0049910041 0.001567898)
    Sum of moments
        Total    : (-2.3504403 0.097718401 0.491473)
        Pressure : (-2.3529034 0.09305818 0.487903)
        Viscous  : (0.002463118 0.0046602211 0.0035700007)


Time = 32

smoothSolver:  Solving for Ux, Initial residual = 0.0030203585, Final residual = 8.0422549e-05, No Iterations 2
smoothSolver:  Solving for Uy, Initial residual = 0.0021312409, Final residual = 5.33247e-05, No Iterations 2
smoothSolver:  Solving for Uz, Initial residual = 0.006982828, Final residual = 0.00019842196, No Iterations 2
GAMG:  Solving for p, Initial residual = 0.030280997, Final residual = 0.00014488812, No Iterations 3
GAMG:  Solving for p, Initial residual = 0.0023111402, Final residual = 1.2373322e-05, No Iterations 3
GAMG:  Solving for p, Initial residual = 0.00032019915, Final residual = 2.7937957e-06, No Iterations 3
GAMG:  Solving for p, Initial residual = 7.5958655e-05, Final residual = 3.7345513e-07, No Iterations 4
GAMG:  Solving for p, Initial residual = 1.8652564e-05, Final residual = 1.8320576e-07, No Iterations 3
GAMG:  Solving for p, Initial residual = 5.503643e-06, Final residual = 4.0188558e-08, No Iterations 4
time step continuity errors : sum local = 1.0007388e-08, global = 7.1196525e-10, cumulative = -1.8818206e-08
smoothSolver:  Solving for omega, Initial residual = 0.01850391, Final residual = 0.0012512682, No Iterations 3
smoothSolver:  Solving for k, Initial residual = 0.01138958, Final residual = 0.0007270663, No Iterations 3
ExecutionTime = 32.52 s  ClockTime = 32 s

forces forces write:
    Sum of forces
        Total    : (0.088309242 3.687796 -0.10743633)
        Pressure : (0.07816081 3.6929013 -0.10883708)
        Viscous  : (0.010148432 -0.0051053292 0.0014007581)
    Sum of moments
        Total    : (-2.3505227 0.097622424 0.49057719)
        Pressure : (-2.3530138 0.093202877 0.4869159)
        Viscous  : (0.0024911271 0.004419547 0.0036612831)


Time = 33

smoothSolver:  Solving for Ux, Initial residual = 0.0029465468, Final residual = 7.7860509e-05, No Iterations 2
smoothSolver:  Solving for Uy, Initial residual = 0.002102487, Final residual = 5.381866e-05, No Iterations 2
smoothSolver:  Solving for Uz, Initial residual = 0.0068172486, Final residual = 0.00019019023, No Iterations 2
GAMG:  Solving for p, Initial residual = 0.028775942, Final residual = 0.00013166433, No Iterations 3
GAMG:  Solving for p, Initial residual = 0.0021472744, Final residual = 1.2008019e-05, No Iterations 3
GAMG:  Solving for p, Initial residual = 0.00029902701, Final residual = 2.5384294e-06, No Iterations 3
GAMG:  Solving for p, Initial residual = 7.069538e-05, Final residual = 6.1149309e-07, No Iterations 3
GAMG:  Solving for p, Initial residual = 1.7359823e-05, Final residual = 9.5779018e-08, No Iterations 4
GAMG:  Solving for p, Initial residual = 5.0517622e-06, Final residual = 4.2912955e-08, No Iterations 3
time step continuity errors : sum local = 1.0614022e-08, global = 8.2973831e-10, cumulative = -1.7988468e-08
smoothSolver:  Solving for omega, Initial residual = 0.0176842, Final residual = 0.0011969303, No Iterations 3
smoothSolver:  Solving for k, Initial residual = 0.011136591, Final residual = 0.00071167568, No Iterations 3
ExecutionTime = 33.61 s  ClockTime = 33 s

forces forces write:
    Sum of forces
        Total    : (0.088113267 3.6856023 -0.10749706)
        Pressure : (0.078266139 3.6908547 -0.10881371)
        Viscous  : (0.0098471279 -0.0052523882 0.001316646)
    Sum of moments
        Total    : (-2.3493696 0.097555441 0.4900061)
        Pressure : (-2.3519065 0.093374218 0.48624095)
        Viscous  : (0.0025369352 0.0041812227 0.0037651514)


Time = 34

smoothSolver:  Solving for Ux, Initial residual = 0.0028760326, Final residual = 7.6175489e-05, No Iterations 2
smoothSolver:  Solving for Uy, Initial residual = 0.0020746143, Final residual = 5.399542e-05, No Iterations 2
smoothSolver:  Solving for Uz, Initial residual = 0.0066512468, Final residual = 0.00018294038, No Iterations 2
GAMG:  Solving for p, Initial residual = 0.027387928, Final residual = 0.00012608462, No Iterations 3
GAMG:  Solving for p, Initial residual = 0.0020304161, Final residual = 1.0111131e-05, No Iterations 3
GAMG:  Solving for p, Initial residual = 0.00028607888, Final residual = 1.9601025e-06, No Iterations 3
GAMG:  Solving for p, Initial residual = 6.7798862e-05, Final residual = 3.8567452e-07, No Iterations 3
GAMG:  Solving for p, Initial residual = 1.6711363e-05, Final residual = 1.1420255e-07, No Iterations 3
GAMG:  Solving for p, Initial residual = 4.8719645e-06, Final residual = 3.0744012e-08, No Iterations 3
time step continuity errors : sum local = 7.5524414e-09, global = -1.8761715e-09, cumulative = -1.986464e-08
smoothSolver:  Solving for omega, Initial residual = 0.016917369, Final residual = 0.001146015, No Iterations 3
smoothSolver:  Solving for k, Initial residual = 0.010902301, Final residual = 0.00069747721, No Iterations 3
ExecutionTime = 34.37 s  ClockTime = 34 s

forces forces write:
    Sum of forces
        Total    : (0.088253753 3.6825568 -0.1074503)
        Pressure : (0.07875524 3.6879877 -0.10860846)
        Viscous  : (0.0094985133 -0.0054308645 0.0011581581)
    Sum of moments
        Total    : (-2.3477045 0.097559167 0.49056667)
        Pressure : (-2.3503053 0.093609452 0.48668127)
        Viscous  : (0.0026008564 0.0039497153 0.0038854017)


Time = 35

smoothSolver:  Solving for Ux, Initial residual = 0.0028204762, Final residual = 7.5028913e-05, No Iterations 2
smoothSolver:  Solving for Uy, Initial residual = 0.0020120266, Final residual = 5.2397798e-05, No Iterations 2
smoothSolver:  Solving for Uz, Initial residual = 0.006512373, Final residual = 0.00017811797, No Iterations 2
GAMG:  Solving for p, Initial residual = 0.026110276, Final residual = 0.00011570062, No Iterations 3
GAMG:  Solving for p, Initial residual = 0.0018895256, Final residual = 9.4648673e-06, No Iterations 3
GAMG:  Solving for p, Initial residual = 0.00027190841, Final residual = 1.7530925e-06, No Iterations 3
GAMG:  Solving for p, Initial residual = 6.4338112e-05, Final residual = 3.0995899e-07, No Iterations 3
GAMG:  Solving for p, Initial residual = 1.6166998e-05, Final residual = 8.8513796e-08, No Iterations 3
GAMG:  Solving for p, Initial residual = 4.6705432e-06, Final residual = 2.6955158e-08, No Iterations 3
time step continuity errors : sum local = 6.5794992e-09, global = -1.7981267e-09, cumulative = -2.1662766e-08
smoothSolver:  Solving for omega, Initial residual = 0.016200871, Final residual = 0.00109828, No Iterations 3
smoothSolver:  Solving for k, Initial residual = 0.010684726, Final residual = 0.00068432667, No Iterations 3
ExecutionTime = 35.448 s  ClockTime = 35 s

forces forces write:
    Sum of forces
        Total    : (0.08850671 3.6801868 -0.10720603)
        Pressure : (0.079446601 3.6857894 -0.10819133)
        Viscous  : (0.0090601092 -0.0056025923 0.00098529421)
    Sum of moments
        Total    : (-2.3464089 0.097599332 0.49214456)
        Pressure : (-2.3490896 0.093877374 0.48812129)
        Viscous  : (0.002680698 0.0037219589 0.0040232664)


Time = 36

smoothSolver:  Solving for Ux, Initial residual = 0.0027746496, Final residual = 7.3715262e-05, No Iterations 2
smoothSolver:  Solving for Uy, Initial residual = 0.0019274079, Final residual = 4.969406e-05, No Iterations 2
smoothSolver:  Solving for Uz, Initial residual = 0.0064034764, Final residual = 0.0001754855, No Iterations 2
GAMG:  Solving for p, Initial residual = 0.024828595, Final residual = 0.00010310862, No Iterations 3
GAMG:  Solving for p, Initial residual = 0.0017332242, Final residual = 8.9869035e-06, No Iterations 3
GAMG:  Solving for p, Initial residual = 0.00025126865, Final residual = 1.8017959e-06, No Iterations 3
GAMG:  Solving for p, Initial residual = 5.9926898e-05, Final residual = 4.143186e-07, No Iterations 3
GAMG:  Solving for p, Initial residual = 1.5239447e-05, Final residual = 1.2985568e-07, No Iterations 3
GAMG:  Solving for p, Initial residual = 4.4496695e-06, Final residual = 3.6587257e-08, No Iterations 3
time step continuity errors : sum local = 8.8789466e-09, global = -1.5977722e-09, cumulative = -2.3260539e-08
smoothSolver:  Solving for omega, Initial residual = 0.01552947, Final residual = 0.001053383, No Iterations 3
smoothSolver:  Solving for k, Initial residual = 0.010482937, Final residual = 0.00067215361, No Iterations 3
ExecutionTime = 36.208 s  ClockTime = 36 s

forces forces write:
    Sum of forces
        Total    : (0.088595576 3.6791783 -0.10686807)
        Pressure : (0.080118452 3.6849135 -0.10765422)
        Viscous  : (0.0084771244 -0.0057351458 0.00078614609)
    Sum of moments
        Total    : (-2.3458805 0.09763276 0.49403229)
        Pressure : (-2.3486464 0.094138208 0.48985342)
        Viscous  : (0.0027659023 0.0034945523 0.0041788732)


Time = 37

smoothSolver:  Solving for Ux, Initial residual = 0.0027242867, Final residual = 7.1808369e-05, No Iterations 2
smoothSolver:  Solving for Uy, Initial residual = 0.0018343975, Final residual = 4.6442503e-05, No Iterations 2
smoothSolver:  Solving for Uz, Initial residual = 0.0062848527, Final residual = 0.00017312132, No Iterations 2
GAMG:  Solving for p, Initial residual = 0.023486048, Final residual = 9.5392609e-05, No Iterations 3
GAMG:  Solving for p, Initial residual = 0.0015903643, Final residual = 8.1037841e-06, No Iterations 3
GAMG:  Solving for p, Initial residual = 0.00023061174, Final residual = 1.9172105e-06, No Iterations 3
GAMG:  Solving for p, Initial residual = 5.5496553e-05, Final residual = 5.0141026e-07, No Iterations 3
GAMG:  Solving for p, Initial residual = 1.406479e-05, Final residual = 7.9973816e-08, No Iterations 4
GAMG:  Solving for p, Initial residual = 4.0982228e-06, Final residual = 3.4186551e-08, No Iterations 3
time step continuity errors : sum local = 8.2517e-09, global = 8.7355439e-10, cumulative = -2.2386984e-08
smoothSolver:  Solving for omega, Initial residual = 0.014898346, Final residual = 0.0010111153, No Iterations 3
smoothSolver:  Solving for k, Initial residual = 0.010295291, Final residual = 0.0006608376, No Iterations 3
ExecutionTime = 37.188 s  ClockTime = 37 s

forces forces write:
    Sum of forces
        Total    : (0.088582288 3.6790448 -0.1065438)
        Pressure : (0.080701996 3.6849031 -0.10714292)
        Viscous  : (0.0078802917 -0.0058582489 0.00059911663)
    Sum of moments
        Total    : (-2.3458659 0.097660229 0.49551707)
        Pressure : (-2.3487239 0.094387756 0.49116791)
        Viscous  : (0.0028580104 0.0032724721 0.0043491571)


Time = 38

smoothSolver:  Solving for Ux, Initial residual = 0.0026717109, Final residual = 6.960553e-05, No Iterations 2
smoothSolver:  Solving for Uy, Initial residual = 0.0017535959, Final residual = 4.3440659e-05, No Iterations 2
smoothSolver:  Solving for Uz, Initial residual = 0.0061359451, Final residual = 0.00016982138, No Iterations 2
GAMG:  Solving for p, Initial residual = 0.022247091, Final residual = 9.2162251e-05, No Iterations 3
GAMG:  Solving for p, Initial residual = 0.0015082167, Final residual = 7.9285794e-06, No Iterations 3
GAMG:  Solving for p, Initial residual = 0.00021994926, Final residual = 1.8143864e-06, No Iterations 3
GAMG:  Solving for p, Initial residual = 5.3311082e-05, Final residual = 5.0206403e-07, No Iterations 3
GAMG:  Solving for p, Initial residual = 1.3353511e-05, Final residual = 8.5797502e-08, No Iterations 4
GAMG:  Solving for p, Initial residual = 3.8719818e-06, Final residual = 3.7299567e-08, No Iterations 3
time step continuity errors : sum local = 8.9538486e-09, global = 7.6612058e-10, cumulative = -2.1620864e-08
smoothSolver:  Solving for omega, Initial residual = 0.014304903, Final residual = 0.00097127907, No Iterations 3
smoothSolver:  Solving for k, Initial residual = 0.01012116, Final residual = 0.0006503145, No Iterations 3
ExecutionTime = 37.938 s  ClockTime = 38 s

forces forces write:
    Sum of forces
        Total    : (0.088526147 3.6788702 -0.10631464)
        Pressure : (0.081211584 3.6848573 -0.10676158)
        Viscous  : (0.0073145631 -0.0059870624 0.00044694285)
    Sum of moments
        Total    : (-2.3458392 0.097683758 0.49633906)
        Pressure : (-2.348791 0.094625505 0.49180843)
        Viscous  : (0.0029518147 0.0030582531 0.0045306251)


Time = 39

smoothSolver:  Solving for Ux, Initial residual = 0.002620124, Final residual = 6.7313733e-05, No Iterations 2
smoothSolver:  Solving for Uy, Initial residual = 0.0016998416, Final residual = 4.134567e-05, No Iterations 2
smoothSolver:  Solving for Uz, Initial residual = 0.0059687763, Final residual = 0.00016559956, No Iterations 2
GAMG:  Solving for p, Initial residual = 0.021069382, Final residual = 8.6293192e-05, No Iterations 3
GAMG:  Solving for p, Initial residual = 0.0014323652, Final residual = 7.1887851e-06, No Iterations 3
GAMG:  Solving for p, Initial residual = 0.00021138724, Final residual = 1.5181435e-06, No Iterations 3
GAMG:  Solving for p, Initial residual = 5.1878838e-05, Final residual = 4.222143e-07, No Iterations 3
GAMG:  Solving for p, Initial residual = 1.2988413e-05, Final residual = 7.3106799e-08, No Iterations 4
GAMG:  Solving for p, Initial residual = 3.8342373e-06, Final residual = 3.3602591e-08, No Iterations 3
time step continuity errors : sum local = 8.0211988e-09, global = 7.1222218e-10, cumulative = -2.0908641e-08
smoothSolver:  Solving for omega, Initial residual = 0.013746275, Final residual = 0.00093371789, No Iterations 3
smoothSolver:  Solving for k, Initial residual = 0.0099591852, Final residual = 0.0006404894, No Iterations 3
ExecutionTime = 38.764 s  ClockTime = 39 s

forces forces write:
    Sum of forces
        Total    : (0.088476464 3.6780909 -0.10626094)
        Pressure : (0.081687195 3.6842052 -0.10655085)
        Viscous  : (0.0067892698 -0.006114344 0.00028990997)
    Sum of moments
        Total    : (-2.3454621 0.097712306 0.49675272)
        Pressure : (-2.3485076 0.094853906 0.49202937)
        Viscous  : (0.0030455057 0.0028583996 0.0047233519)


Time = 40

smoothSolver:  Solving for Ux, Initial residual = 0.0025688407, Final residual = 6.5369015e-05, No Iterations 2
smoothSolver:  Solving for Uy, Initial residual = 0.0016610483, Final residual = 3.972909e-05, No Iterations 2
smoothSolver:  Solving for Uz, Initial residual = 0.0058020341, Final residual = 0.00016075843, No Iterations 2
GAMG:  Solving for p, Initial residual = 0.019906663, Final residual = 7.858635e-05, No Iterations 3
GAMG:  Solving for p, Initial residual = 0.0013303195, Final residual = 5.4406546e-06, No Iterations 3
GAMG:  Solving for p, Initial residual = 0.00019843719, Final residual = 1.0344395e-06, No Iterations 3
GAMG:  Solving for p, Initial residual = 4.9003199e-05, Final residual = 2.3901941e-07, No Iterations 3
GAMG:  Solving for p, Initial residual = 1.2296084e-05, Final residual = 7.000072e-08, No Iterations 3
GAMG:  Solving for p, Initial residual = 3.6928995e-06, Final residual = 1.9224954e-08, No Iterations 3
time step continuity errors : sum local = 4.5628435e-09, global = -1.3457632e-09, cumulative = -2.2254405e-08
smoothSolver:  Solving for omega, Initial residual = 0.013219971, Final residual = 0.00089826208, No Iterations 3
smoothSolver:  Solving for k, Initial residual = 0.0098088362, Final residual = 0.0006313336, No Iterations 3
ExecutionTime = 39.644 s  ClockTime = 39 s

forces forces write:
    Sum of forces
        Total    : (0.08849027 3.6767785 -0.1062854)
        Pressure : (0.082176466 3.6830367 -0.10642379)
        Viscous  : (0.0063138039 -0.0062581953 0.00013838908)
    Sum of moments
        Total    : (-2.344782 0.097740786 0.49725239)
        Pressure : (-2.3479271 0.095068293 0.49232636)
        Viscous  : (0.0031451555 0.0026724932 0.0049260376)


Time = 41

smoothSolver:  Solving for Ux, Initial residual = 0.0025219527, Final residual = 6.3735434e-05, No Iterations 2
smoothSolver:  Solving for Uy, Initial residual = 0.0016207886, Final residual = 3.8405833e-05, No Iterations 2
smoothSolver:  Solving for Uz, Initial residual = 0.0056487555, Final residual = 0.00015539133, No Iterations 2
GAMG:  Solving for p, Initial residual = 0.01887216, Final residual = 6.9543822e-05, No Iterations 3
GAMG:  Solving for p, Initial residual = 0.0012531803, Final residual = 5.1996376e-06, No Iterations 3
GAMG:  Solving for p, Initial residual = 0.00018782832, Final residual = 9.6672017e-07, No Iterations 3
GAMG:  Solving for p, Initial residual = 4.6275557e-05, Final residual = 2.9676166e-07, No Iterations 3
GAMG:  Solving for p, Initial residual = 1.1586845e-05, Final residual = 1.033346e-07, No Iterations 3
GAMG:  Solving for p, Initial residual = 3.4283961e-06, Final residual = 1.9762947e-08, No Iterations 4
time step continuity errors : sum local = 4.6645569e-09, global = -4.0309035e-10, cumulative = -2.2657495e-08
smoothSolver:  Solving for omega, Initial residual = 0.01272335, Final residual = 0.00086472919, No Iterations 3
smoothSolver:  Solving for k, Initial residual = 0.0096690526, Final residual = 0.00062277073, No Iterations 3
ExecutionTime = 40.464 s  ClockTime = 40 s

forces forces write:
    Sum of forces
        Total    : (0.088574198 3.6754228 -0.10629193)
        Pressure : (0.082693911 3.6818613 -0.10627114)
        Viscous  : (0.0058802872 -0.0064384815 -2.079365e-05)
    Sum of moments
        Total    : (-2.3441186 0.097757548 0.49818016)
        Pressure : (-2.3473715 0.095261846 0.49304307)
        Viscous  : (0.0032529169 0.0024957017 0.0051370865)


Time = 42

smoothSolver:  Solving for Ux, Initial residual = 0.0024815867, Final residual = 6.2428035e-05, No Iterations 2
smoothSolver:  Solving for Uy, Initial residual = 0.0015701817, Final residual = 3.6981103e-05, No Iterations 2
smoothSolver:  Solving for Uz, Initial residual = 0.0055051591, Final residual = 0.00014980763, No Iterations 2
GAMG:  Solving for p, Initial residual = 0.018045913, Final residual = 6.3026133e-05, No Iterations 3
GAMG:  Solving for p, Initial residual = 0.0011883071, Final residual = 5.0547407e-06, No Iterations 3
GAMG:  Solving for p, Initial residual = 0.00017946151, Final residual = 1.1308061e-06, No Iterations 3
GAMG:  Solving for p, Initial residual = 4.3862019e-05, Final residual = 3.4620172e-07, No Iterations 3
GAMG:  Solving for p, Initial residual = 1.0929534e-05, Final residual = 6.6453599e-08, No Iterations 4
GAMG:  Solving for p, Initial residual = 3.1722385e-06, Final residual = 2.8591947e-08, No Iterations 3
time step continuity errors : sum local = 6.7134632e-09, global = -5.8934881e-10, cumulative = -2.3246844e-08
smoothSolver:  Solving for omega, Initial residual = 0.012254345, Final residual = 0.00083296556, No Iterations 3
smoothSolver:  Solving for k, Initial residual = 0.0095392916, Final residual = 0.00061476479, No Iterations 3
ExecutionTime = 41.554 s  ClockTime = 41 s

forces forces write:
    Sum of forces
        Total    : (0.088703853 3.6745057 -0.10620618)
        Pressure : (0.083213096 3.6811567 -0.10603146)
        Viscous  : (0.0054907564 -0.0066509946 -0.00017471755)
    Sum of moments
        Total    : (-2.3437614 0.097753154 0.49953705)
        Pressure : (-2.3471314 0.095425467 0.4941804)
        Viscous  : (0.0033699576 0.0023276872 0.0053566542)


Time = 43

smoothSolver:  Solving for Ux, Initial residual = 0.0024440612, Final residual = 6.1129577e-05, No Iterations 2
smoothSolver:  Solving for Uy, Initial residual = 0.0015108907, Final residual = 3.5413503e-05, No Iterations 2
smoothSolver:  Solving for Uz, Initial residual = 0.0053598415, Final residual = 0.00014345781, No Iterations 2
GAMG:  Solving for p, Initial residual = 0.017245881, Final residual = 5.6723771e-05, No Iterations 3
GAMG:  Solving for p, Initial residual = 0.0011036927, Final residual = 4.6840369e-06, No Iterations 3
GAMG:  Solving for p, Initial residual = 0.00016926693, Final residual = 1.1664875e-06, No Iterations 3
GAMG:  Solving for p, Initial residual = 4.2587833e-05, Final residual = 3.5306265e-07, No Iterations 3
GAMG:  Solving for p, Initial residual = 1.0764556e-05, Final residual = 7.3074049e-08, No Iterations 4
GAMG:  Solving for p, Initial residual = 3.2311321e-06, Final residual = 3.1169375e-08, No Iterations 3
time step continuity errors : sum local = 7.2823117e-09, global = -5.4419745e-10, cumulative = -2.3791041e-08
smoothSolver:  Solving for omega, Initial residual = 0.011810177, Final residual = 0.00080282705, No Iterations 3
smoothSolver:  Solving for k, Initial residual = 0.0094182964, Final residual = 0.00060724496, No Iterations 3
ExecutionTime = 42.334 s  ClockTime = 42 s

forces forces write:
    Sum of forces
        Total    : (0.088810944 3.6741727 -0.10605326)
        Pressure : (0.083683221 3.6810502 -0.10571256)
        Viscous  : (0.0051277228 -0.0068774579 -0.00034069518)
    Sum of moments
        Total    : (-2.3437769 0.097720544 0.50106212)
        Pressure : (-2.3472664 0.095554629 0.4954772)
        Viscous  : (0.0034894899 0.0021659152 0.0055849157)


Time = 44

smoothSolver:  Solving for Ux, Initial residual = 0.0024055422, Final residual = 5.9483626e-05, No Iterations 2
smoothSolver:  Solving for Uy, Initial residual = 0.0014520411, Final residual = 3.3852229e-05, No Iterations 2
smoothSolver:  Solving for Uz, Initial residual = 0.0052005959, Final residual = 0.00013629752, No Iterations 2
GAMG:  Solving for p, Initial residual = 0.016506263, Final residual = 5.124774e-05, No Iterations 3
GAMG:  Solving for p, Initial residual = 0.001026304, Final residual = 4.0199578e-06, No Iterations 3
GAMG:  Solving for p, Initial residual = 0.00015962015, Final residual = 1.0497855e-06, No Iterations 3
GAMG:  Solving for p, Initial residual = 4.0903051e-05, Final residual = 3.2238918e-07, No Iterations 3
GAMG:  Solving for p, Initial residual = 1.0589206e-05, Final residual = 6.0330595e-08, No Iterations 4
GAMG:  Solving for p, Initial residual = 3.2285859e-06, Final residual = 2.6451934e-08, No Iterations 3
time step continuity errors : sum local = 6.149527e-09, global = 6.1269543e-10, cumulative = -2.3178346e-08
smoothSolver:  Solving for omega, Initial residual = 0.011389416, Final residual = 0.00077420756, No Iterations 3
smoothSolver:  Solving for k, Initial residual = 0.0093060372, Final residual = 0.00060021127, No Iterations 3
ExecutionTime = 43.394 s  ClockTime = 43 s

forces forces write:
    Sum of forces
        Total    : (0.088847561 3.6741775 -0.10585993)
        Pressure : (0.084070161 3.6812747 -0.1053688)
        Viscous  : (0.0047773999 -0.0070972308 -0.00049113164)
    Sum of moments
        Total    : (-2.3439853 0.097660041 0.50244827)
        Pressure : (-2.3475919 0.095656263 0.49662614)
        Viscous  : (0.0036065575 0.0020037779 0.0058221282)


Time = 45

smoothSolver:  Solving for Ux, Initial residual = 0.0023642138, Final residual = 5.7577756e-05, No Iterations 2
smoothSolver:  Solving for Uy, Initial residual = 0.0014022252, Final residual = 3.2494103e-05, No Iterations 2
smoothSolver:  Solving for Uz, Initial residual = 0.0050325727, Final residual = 0.000128818, No Iterations 2
GAMG:  Solving for p, Initial residual = 0.015870546, Final residual = 4.7572809e-05, No Iterations 3
GAMG:  Solving for p, Initial residual = 0.00096479515, Final residual = 4.0531495e-06, No Iterations 3
GAMG:  Solving for p, Initial residual = 0.00015253328, Final residual = 9.6353736e-07, No Iterations 3
GAMG:  Solving for p, Initial residual = 3.876845e-05, Final residual = 2.7104215e-07, No Iterations 3
GAMG:  Solving for p, Initial residual = 1.0116371e-05, Final residual = 9.1610615e-08, No Iterations 3
GAMG:  Solving for p, Initial residual = 3.097672e-06, Final residual = 1.6791935e-08, No Iterations 4
[...]
smoothSolver:  Solving for k, Initial residual = 0.0013970856, Final residual = 7.0563543e-05, No Iterations 3
ExecutionTime = 186.406 s  ClockTime = 186 s

forces forces write:
    Sum of forces
        Total    : (0.092238212 3.7370558 -0.060728719)
        Pressure : (0.088211263 3.709557 -0.065329949)
        Viscous  : (0.0040269488 0.027498836 0.0046012304)
    Sum of moments
        Total    : (-2.3712512 0.070029936 0.57855294)
        Pressure : (-2.3534441 0.073943466 0.53074763)
        Viscous  : (-0.01780708 -0.0039135301 0.047805318)


Time = 174

smoothSolver:  Solving for Ux, Initial residual = 0.00013308406, Final residual = 3.433811e-06, No Iterations 2
smoothSolver:  Solving for Uy, Initial residual = 0.00010625818, Final residual = 3.4782608e-06, No Iterations 2
smoothSolver:  Solving for Uz, Initial residual = 0.00030019876, Final residual = 9.1797497e-06, No Iterations 2
GAMG:  Solving for p, Initial residual = 0.00057736591, Final residual = 4.3851623e-06, No Iterations 3
GAMG:  Solving for p, Initial residual = 5.4568916e-05, Final residual = 3.8140244e-07, No Iterations 4
GAMG:  Solving for p, Initial residual = 8.9339503e-06, Final residual = 8.6282658e-08, No Iterations 4
GAMG:  Solving for p, Initial residual = 2.2233594e-06, Final residual = 1.9990748e-08, No Iterations 4
GAMG:  Solving for p, Initial residual = 5.7530393e-07, Final residual = 5.9444773e-09, No Iterations 4
GAMG:  Solving for p, Initial residual = 1.6651389e-07, Final residual = 4.9971752e-09, No Iterations 2
time step continuity errors : sum local = 8.1230146e-10, global = -4.7743366e-11, cumulative = -1.982334e-08
smoothSolver:  Solving for omega, Initial residual = 0.00022919145, Final residual = 1.2033122e-05, No Iterations 3
smoothSolver:  Solving for k, Initial residual = 0.0013550149, Final residual = 6.8353943e-05, No Iterations 3
ExecutionTime = 187.558 s  ClockTime = 187 s

forces forces write:
    Sum of forces
        Total    : (0.09229373 3.737221 -0.060649972)
        Pressure : (0.0882383 3.7096988 -0.065293089)
        Viscous  : (0.0040554305 0.02752223 0.0046431174)
    Sum of moments
        Total    : (-2.3713059 0.069999847 0.57869802)
        Pressure : (-2.3534674 0.073902003 0.53083649)
        Viscous  : (-0.017838484 -0.0039021558 0.047861524)


Time = 175

smoothSolver:  Solving for Ux, Initial residual = 0.00013064613, Final residual = 3.375231e-06, No Iterations 2
smoothSolver:  Solving for Uy, Initial residual = 0.00010422702, Final residual = 3.4102087e-06, No Iterations 2
smoothSolver:  Solving for Uz, Initial residual = 0.00029418639, Final residual = 9.0015823e-06, No Iterations 2
GAMG:  Solving for p, Initial residual = 0.00056596422, Final residual = 4.2408251e-06, No Iterations 3
GAMG:  Solving for p, Initial residual = 5.3222042e-05, Final residual = 3.653453e-07, No Iterations 4
GAMG:  Solving for p, Initial residual = 8.6662075e-06, Final residual = 8.0876778e-08, No Iterations 4
GAMG:  Solving for p, Initial residual = 2.1133152e-06, Final residual = 1.8735896e-08, No Iterations 4
GAMG:  Solving for p, Initial residual = 5.4020426e-07, Final residual = 9.6721069e-09, No Iterations 3
GAMG:  Solving for p, Initial residual = 1.5671401e-07, Final residual = 7.3650602e-09, No Iterations 2
time step continuity errors : sum local = 1.1958534e-09, global = -8.9769342e-11, cumulative = -1.9913109e-08
smoothSolver:  Solving for omega, Initial residual = 0.00022587193, Final residual = 1.1869594e-05, No Iterations 3
smoothSolver:  Solving for k, Initial residual = 0.0013142126, Final residual = 6.6217374e-05, No Iterations 3
ExecutionTime = 188.388 s  ClockTime = 188 s

forces forces write:
    Sum of forces
        Total    : (0.092347432 3.7373804 -0.060574038)
        Pressure : (0.088263515 3.7098352 -0.065257512)
        Viscous  : (0.0040839171 0.027545193 0.0046834744)
    Sum of moments
        Total    : (-2.3713594 0.069971857 0.57883814)
        Pressure : (-2.3534909 0.073861682 0.53092094)
        Viscous  : (-0.017868505 -0.0038898249 0.047917198)


Time = 176

smoothSolver:  Solving for Ux, Initial residual = 0.00012826484, Final residual = 3.3180286e-06, No Iterations 2
smoothSolver:  Solving for Uy, Initial residual = 0.0001022321, Final residual = 3.3426535e-06, No Iterations 2
smoothSolver:  Solving for Uz, Initial residual = 0.00028828172, Final residual = 8.8247921e-06, No Iterations 2
GAMG:  Solving for p, Initial residual = 0.0005551272, Final residual = 4.1137795e-06, No Iterations 3
GAMG:  Solving for p, Initial residual = 5.2003209e-05, Final residual = 3.5137984e-07, No Iterations 4
GAMG:  Solving for p, Initial residual = 8.4094168e-06, Final residual = 7.8567554e-08, No Iterations 4
GAMG:  Solving for p, Initial residual = 2.0640869e-06, Final residual = 1.7994906e-08, No Iterations 4
GAMG:  Solving for p, Initial residual = 5.2267977e-07, Final residual = 9.250907e-09, No Iterations 3
GAMG:  Solving for p, Initial residual = 1.5150617e-07, Final residual = 7.0129303e-09, No Iterations 2
time step continuity errors : sum local = 1.1374372e-09, global = -8.4423984e-11, cumulative = -1.9997533e-08
smoothSolver:  Solving for omega, Initial residual = 0.00022266669, Final residual = 1.1710717e-05, No Iterations 3
smoothSolver:  Solving for k, Initial residual = 0.0012746529, Final residual = 6.4152008e-05, No Iterations 3
ExecutionTime = 189.528 s  ClockTime = 189 s

forces forces write:
    Sum of forces
        Total    : (0.092400224 3.737536 -0.060501302)
        Pressure : (0.088287247 3.7099673 -0.065223482)
        Viscous  : (0.0041129769 0.027568721 0.0047221792)
    Sum of moments
        Total    : (-2.3714119 0.069946403 0.57897506)
        Pressure : (-2.3535147 0.073822776 0.53100181)
        Viscous  : (-0.017897216 -0.0038763732 0.04797325)


Time = 177

smoothSolver:  Solving for Ux, Initial residual = 0.00012593545, Final residual = 3.2620028e-06, No Iterations 2
smoothSolver:  Solving for Uy, Initial residual = 0.00010028901, Final residual = 3.2760949e-06, No Iterations 2
smoothSolver:  Solving for Uz, Initial residual = 0.00028242204, Final residual = 8.6491445e-06, No Iterations 2
GAMG:  Solving for p, Initial residual = 0.00054524457, Final residual = 3.9968805e-06, No Iterations 3
GAMG:  Solving for p, Initial residual = 5.0988785e-05, Final residual = 3.4062173e-07, No Iterations 4
GAMG:  Solving for p, Initial residual = 8.2469544e-06, Final residual = 7.5881132e-08, No Iterations 4
GAMG:  Solving for p, Initial residual = 2.0201843e-06, Final residual = 1.746748e-08, No Iterations 4
GAMG:  Solving for p, Initial residual = 5.1265222e-07, Final residual = 8.8547773e-09, No Iterations 3
GAMG:  Solving for p, Initial residual = 1.4792536e-07, Final residual = 6.7220058e-09, No Iterations 2
time step continuity errors : sum local = 1.0891045e-09, global = -7.9577166e-11, cumulative = -2.007711e-08
smoothSolver:  Solving for omega, Initial residual = 0.00021957089, Final residual = 1.1556328e-05, No Iterations 3
smoothSolver:  Solving for k, Initial residual = 0.0012363073, Final residual = 6.2155995e-05, No Iterations 3
ExecutionTime = 190.338 s  ClockTime = 190 s

forces forces write:
    Sum of forces
        Total    : (0.092452482 3.7376889 -0.060432168)
        Pressure : (0.088309732 3.710096 -0.065191405)
        Viscous  : (0.0041427497 0.027592946 0.004759237)
    Sum of moments
        Total    : (-2.3714635 0.069923734 0.57910964)
        Pressure : (-2.3535388 0.073785503 0.5310798)
        Viscous  : (-0.017924643 -0.0038617691 0.048029841)


Time = 178

smoothSolver:  Solving for Ux, Initial residual = 0.00012365404, Final residual = 3.2070787e-06, No Iterations 2
smoothSolver:  Solving for Uy, Initial residual = 9.8371778e-05, Final residual = 3.2104007e-06, No Iterations 2
smoothSolver:  Solving for Uz, Initial residual = 0.00027662602, Final residual = 8.4745852e-06, No Iterations 2
GAMG:  Solving for p, Initial residual = 0.00053569834, Final residual = 3.872204e-06, No Iterations 3
GAMG:  Solving for p, Initial residual = 4.9988626e-05, Final residual = 3.311139e-07, No Iterations 4
GAMG:  Solving for p, Initial residual = 8.1494417e-06, Final residual = 7.3396666e-08, No Iterations 4
GAMG:  Solving for p, Initial residual = 1.988952e-06, Final residual = 1.6883324e-08, No Iterations 4
GAMG:  Solving for p, Initial residual = 5.0577717e-07, Final residual = 8.5227742e-09, No Iterations 3
GAMG:  Solving for p, Initial residual = 1.4476457e-07, Final residual = 6.4404839e-09, No Iterations 2
time step continuity errors : sum local = 1.0424324e-09, global = -7.6292955e-11, cumulative = -2.0153403e-08
smoothSolver:  Solving for omega, Initial residual = 0.0002165699, Final residual = 1.1405789e-05, No Iterations 3
smoothSolver:  Solving for k, Initial residual = 0.0011991495, Final residual = 6.022751e-05, No Iterations 3
ExecutionTime = 191.494 s  ClockTime = 191 s

forces forces write:
    Sum of forces
        Total    : (0.092504202 3.7378393 -0.060365929)
        Pressure : (0.088330974 3.7102212 -0.065161368)
        Viscous  : (0.004173228 0.027618087 0.0047954381)
    Sum of moments
        Total    : (-2.3715142 0.069903098 0.57924217)
        Pressure : (-2.3535634 0.073749846 0.53115492)
        Viscous  : (-0.017950798 -0.0038467481 0.048087253)


Time = 179

smoothSolver:  Solving for Ux, Initial residual = 0.00012141732, Final residual = 3.1532411e-06, No Iterations 2
smoothSolver:  Solving for Uy, Initial residual = 9.6447776e-05, Final residual = 3.1453658e-06, No Iterations 2
smoothSolver:  Solving for Uz, Initial residual = 0.00027091614, Final residual = 8.3012108e-06, No Iterations 2
GAMG:  Solving for p, Initial residual = 0.00052602413, Final residual = 3.752109e-06, No Iterations 3
GAMG:  Solving for p, Initial residual = 4.8907542e-05, Final residual = 3.214693e-07, No Iterations 4
GAMG:  Solving for p, Initial residual = 7.9883159e-06, Final residual = 7.1188276e-08, No Iterations 4
GAMG:  Solving for p, Initial residual = 1.9486737e-06, Final residual = 1.6387291e-08, No Iterations 4
GAMG:  Solving for p, Initial residual = 4.9519945e-07, Final residual = 8.2539177e-09, No Iterations 3
GAMG:  Solving for p, Initial residual = 1.4129223e-07, Final residual = 6.2217459e-09, No Iterations 2
time step continuity errors : sum local = 1.0060416e-09, global = -7.3082079e-11, cumulative = -2.0226485e-08
smoothSolver:  Solving for omega, Initial residual = 0.00021365572, Final residual = 1.1259075e-05, No Iterations 3
smoothSolver:  Solving for k, Initial residual = 0.0011631495, Final residual = 5.8364632e-05, No Iterations 3
ExecutionTime = 192.292 s  ClockTime = 192 s

forces forces write:
    Sum of forces
        Total    : (0.092555327 3.7379871 -0.060302486)
        Pressure : (0.088350882 3.7103428 -0.065133245)
        Viscous  : (0.0042044452 0.027644313 0.0048307587)
    Sum of moments
        Total    : (-2.3715641 0.069884503 0.5793725)
        Pressure : (-2.3535883 0.07371572 0.53122695)
        Viscous  : (-0.017975743 -0.0038312169 0.048145543)


Time = 180

smoothSolver:  Solving for Ux, Initial residual = 0.0001192256, Final residual = 3.1005767e-06, No Iterations 2
smoothSolver:  Solving for Uy, Initial residual = 9.4558528e-05, Final residual = 3.081198e-06, No Iterations 2
smoothSolver:  Solving for Uz, Initial residual = 0.00026533522, Final residual = 8.1300079e-06, No Iterations 2
GAMG:  Solving for p, Initial residual = 0.00051656198, Final residual = 3.6430782e-06, No Iterations 3
GAMG:  Solving for p, Initial residual = 4.7934546e-05, Final residual = 3.1323261e-07, No Iterations 4
GAMG:  Solving for p, Initial residual = 7.8725892e-06, Final residual = 6.947023e-08, No Iterations 4
GAMG:  Solving for p, Initial residual = 1.9058992e-06, Final residual = 1.5984906e-08, No Iterations 4
GAMG:  Solving for p, Initial residual = 4.8526649e-07, Final residual = 8.059517e-09, No Iterations 3
GAMG:  Solving for p, Initial residual = 1.3758521e-07, Final residual = 6.0983964e-09, No Iterations 2
time step continuity errors : sum local = 9.8516589e-10, global = -7.1382832e-11, cumulative = -2.0297868e-08
smoothSolver:  Solving for omega, Initial residual = 0.00021082291, Final residual = 1.1116113e-05, No Iterations 3
smoothSolver:  Solving for k, Initial residual = 0.0011282879, Final residual = 5.6565913e-05, No Iterations 3
ExecutionTime = 193.502 s  ClockTime = 193 s

forces forces write:
    Sum of forces
        Total    : (0.092605847 3.738132 -0.060241767)
        Pressure : (0.088369561 3.7104608 -0.065106662)
        Viscous  : (0.0042362854 0.027671231 0.0048648944)
    Sum of moments
        Total    : (-2.371613 0.069867907 0.57950043)
        Pressure : (-2.3536135 0.073682891 0.531296)
        Viscous  : (-0.01799953 -0.0038149837 0.048204434)


Time = 181

smoothSolver:  Solving for Ux, Initial residual = 0.00011708047, Final residual = 3.0490612e-06, No Iterations 2
smoothSolver:  Solving for Uy, Initial residual = 9.2688258e-05, Final residual = 3.0174954e-06, No Iterations 2
smoothSolver:  Solving for Uz, Initial residual = 0.00025986562, Final residual = 7.9609554e-06, No Iterations 2
GAMG:  Solving for p, Initial residual = 0.00050715067, Final residual = 3.5408823e-06, No Iterations 3
GAMG:  Solving for p, Initial residual = 4.6729844e-05, Final residual = 3.0458932e-07, No Iterations 4
GAMG:  Solving for p, Initial residual = 7.7226435e-06, Final residual = 6.9090562e-08, No Iterations 4
GAMG:  Solving for p, Initial residual = 1.8572456e-06, Final residual = 1.5917511e-08, No Iterations 4
GAMG:  Solving for p, Initial residual = 4.7841971e-07, Final residual = 8.1440291e-09, No Iterations 3
GAMG:  Solving for p, Initial residual = 1.3575005e-07, Final residual = 6.1731638e-09, No Iterations 2
time step continuity errors : sum local = 9.9633714e-10, global = -6.9970302e-11, cumulative = -2.0367838e-08
smoothSolver:  Solving for omega, Initial residual = 0.00020806691, Final residual = 1.0976611e-05, No Iterations 3
smoothSolver:  Solving for k, Initial residual = 0.0010945391, Final residual = 5.4829635e-05, No Iterations 3
ExecutionTime = 194.332 s  ClockTime = 194 s

forces forces write:
    Sum of forces
        Total    : (0.092655862 3.738274 -0.060183213)
        Pressure : (0.08838721 3.7105755 -0.0650811)
        Viscous  : (0.0042686527 0.027698504 0.0048978868)
    Sum of moments
        Total    : (-2.3716609 0.069852896 0.579626)
        Pressure : (-2.3536388 0.073650961 0.53136239)
        Viscous  : (-0.018022166 -0.0037980649 0.04826361)


Time = 182

smoothSolver:  Solving for Ux, Initial residual = 0.00011497992, Final residual = 2.9986768e-06, No Iterations 2
smoothSolver:  Solving for Uy, Initial residual = 9.0831462e-05, Final residual = 2.9547128e-06, No Iterations 2
smoothSolver:  Solving for Uz, Initial residual = 0.00025449505, Final residual = 7.7934556e-06, No Iterations 2
GAMG:  Solving for p, Initial residual = 0.00049789949, Final residual = 3.4353183e-06, No Iterations 3
GAMG:  Solving for p, Initial residual = 4.567715e-05, Final residual = 2.9431399e-07, No Iterations 4
GAMG:  Solving for p, Initial residual = 7.5546773e-06, Final residual = 6.7384995e-08, No Iterations 4
GAMG:  Solving for p, Initial residual = 1.8303023e-06, Final residual = 1.5561618e-08, No Iterations 4
GAMG:  Solving for p, Initial residual = 4.6924054e-07, Final residual = 7.9989148e-09, No Iterations 3
GAMG:  Solving for p, Initial residual = 1.3383725e-07, Final residual = 6.0695836e-09, No Iterations 2
time step continuity errors : sum local = 9.7876125e-10, global = -6.7370777e-11, cumulative = -2.0435209e-08
smoothSolver:  Solving for omega, Initial residual = 0.0002053835, Final residual = 1.0840366e-05, No Iterations 3
smoothSolver:  Solving for k, Initial residual = 0.0010618758, Final residual = 5.3153905e-05, No Iterations 3
ExecutionTime = 195.412 s  ClockTime = 195 s

forces forces write:
    Sum of forces
        Total    : (0.092705244 3.7384132 -0.060126413)
        Pressure : (0.088403818 3.7106869 -0.065056593)
        Viscous  : (0.0043014254 0.027726293 0.0049301803)
    Sum of moments
        Total    : (-2.371708 0.069838867 0.57974914)
        Pressure : (-2.3536642 0.073619907 0.53142608)
        Viscous  : (-0.018043813 -0.0037810398 0.048323065)


Time = 183

smoothSolver:  Solving for Ux, Initial residual = 0.00011292154, Final residual = 2.9492227e-06, No Iterations 2
smoothSolver:  Solving for Uy, Initial residual = 8.9000208e-05, Final residual = 2.8930333e-06, No Iterations 2
smoothSolver:  Solving for Uz, Initial residual = 0.00024920683, Final residual = 7.6274707e-06, No Iterations 2
GAMG:  Solving for p, Initial residual = 0.0004887762, Final residual = 3.3257556e-06, No Iterations 3
GAMG:  Solving for p, Initial residual = 4.4767105e-05, Final residual = 2.8324084e-07, No Iterations 4
GAMG:  Solving for p, Initial residual = 7.3708628e-06, Final residual = 6.4819309e-08, No Iterations 4
GAMG:  Solving for p, Initial residual = 1.7753414e-06, Final residual = 1.4885304e-08, No Iterations 4
GAMG:  Solving for p, Initial residual = 4.5487819e-07, Final residual = 7.6505431e-09, No Iterations 3
GAMG:  Solving for p, Initial residual = 1.2895266e-07, Final residual = 5.7769518e-09, No Iterations 2
time step continuity errors : sum local = 9.3078645e-10, global = -6.1565225e-11, cumulative = -2.0496774e-08
smoothSolver:  Solving for omega, Initial residual = 0.00020276599, Final residual = 1.0707312e-05, No Iterations 3
smoothSolver:  Solving for k, Initial residual = 0.0010302713, Final residual = 5.1536949e-05, No Iterations 3
ExecutionTime = 196.245 s  ClockTime = 196 s

forces forces write:
    Sum of forces
        Total    : (0.092753602 3.7385499 -0.060071997)
        Pressure : (0.088419356 3.7107948 -0.065033476)
        Viscous  : (0.0043342463 0.027755013 0.0049614798)
    Sum of moments
        Total    : (-2.3717546 0.069825971 0.57986967)
        Pressure : (-2.3536899 0.07359007 0.53148691)
        Viscous  : (-0.018064735 -0.0037640991 0.048382757)


Time = 184

smoothSolver:  Solving for Ux, Initial residual = 0.00011090374, Final residual = 2.9007657e-06, No Iterations 2
smoothSolver:  Solving for Uy, Initial residual = 8.7189719e-05, Final residual = 2.8324033e-06, No Iterations 2
smoothSolver:  Solving for Uz, Initial residual = 0.00024399732, Final residual = 7.4630836e-06, No Iterations 2
GAMG:  Solving for p, Initial residual = 0.0004794923, Final residual = 3.2222412e-06, No Iterations 3
GAMG:  Solving for p, Initial residual = 4.3602687e-05, Final residual = 2.7156247e-07, No Iterations 4
GAMG:  Solving for p, Initial residual = 7.1599763e-06, Final residual = 6.1837963e-08, No Iterations 4
GAMG:  Solving for p, Initial residual = 1.7248375e-06, Final residual = 1.4394751e-08, No Iterations 4
GAMG:  Solving for p, Initial residual = 4.4115803e-07, Final residual = 7.3213136e-09, No Iterations 3
GAMG:  Solving for p, Initial residual = 1.2506158e-07, Final residual = 5.5188611e-09, No Iterations 2
time step continuity errors : sum local = 8.8848176e-10, global = -5.6732084e-11, cumulative = -2.0553506e-08
smoothSolver:  Solving for omega, Initial residual = 0.00020021116, Final residual = 1.0577308e-05, No Iterations 3
smoothSolver:  Solving for k, Initial residual = 0.00099969567, Final residual = 4.9977039e-05, No Iterations 3
ExecutionTime = 197.399 s  ClockTime = 197 s


SIMPLE solution converged in 184 iterations

forces forces write:
    Sum of forces
        Total    : (0.092801395 3.7386834 -0.060019395)
        Pressure : (0.088434039 3.7108994 -0.065012064)
        Viscous  : (0.0043673554 0.02778409 0.0049926687)
    Sum of moments
        Total    : (-2.3718002 0.069814459 0.57998756)
        Pressure : (-2.3537156 0.073561969 0.53154512)
        Viscous  : (-0.018084694 -0.0037475103 0.048442442)


End

Finalising parallel run
