/*---------------------------------------------------------------------------*\
| =========                 |                                                 |
| \\      /  F ield         | OpenFOAM: The Open Source CFD Toolbox           |
|  \\    /   O peration     | Version:  v2012                                 |
|   \\  /    A nd           | Website:  www.openfoam.com                      |
|    \\/     M anipulation  |                                                 |
\*---------------------------------------------------------------------------*/
Build  : 79e353b84e-20201222 OPENFOAM=2012
Arch   : "LSB;label=32;scalar=64"
Exec   : simpleFoam -parallel
Date   : Apr 17 2022
Time   : 20:45:06
Host   : DESKTOP-OGTHBU9
PID    : 7776
I/O    : uncollated
Case   : C:/Users/ZEEMAR~1/AppData/Local/Temp/case
nProcs : 4
Hosts  :
(
    (DESKTOP-OGTHBU9 4)
)
Pstream initialized with:
    floatTransfer      : 0
    nProcsSimpleSum    : 0
    commsType          : nonBlocking
    polling iterations : 0
trapFpe: Floating point exception trapping enabled (FOAM_SIGFPE).
fileModificationChecking : Monitoring run-time modified files using timeStampMaster (fileModificationSkew 5, maxFileModificationPolls 20)
allowSystemOperations : Allowing user-supplied system call operations

// * * * * * * * * * * * * * * * * * * * * * * * * * * * * * * * * * * * * * //
Create time

Create mesh for time = 0


SIMPLE: convergence criteria
    field p	 tolerance 0.001
    field U	 tolerance 0.001
    field "(k|epsilon|omega|f|v2|nuTilda)"	 tolerance 0.001

Reading field p

Reading field U

Reading/calculating face flux field phi

Selecting incompressible transport model Newtonian
Selecting turbulence model type RAS
Selecting RAS turbulence model kOmegaSST
Selecting patchDistMethod meshWave
RAS
{
    RASModel        kOmegaSST;
    turbulence      on;
    printCoeffs     on;
    alphaK1         0.85;
    alphaK2         1;
    alphaOmega1     0.5;
    alphaOmega2     0.856;
    gamma1          0.55555556;
    gamma2          0.44;
    beta1           0.075;
    beta2           0.0828;
    betaStar        0.09;
    a1              0.31;
    b1              1;
    c1              10;
    F3              false;
    decayControl    false;
    kInf            0;
    omegaInf        0;
}

No MRF models present

No finite volume options present

Starting time loop

forces forces:
    rho: rhoInf
    Freestream density (rhoInf) set to 1
    Not including porosity effects
    Fields will be written

Time = 1

smoothSolver:  Solving for Ux, Initial residual = 0.053369418, Final residual = 0.00092347251, No Iterations 2
smoothSolver:  Solving for Uy, Initial residual = 0.14312707, Final residual = 0.0028026308, No Iterations 2
smoothSolver:  Solving for Uz, Initial residual = 0.15076762, Final residual = 0.013282872, No Iterations 1
GAMG:  Solving for p, Initial residual = 0.59398504, Final residual = 0.0040796576, No Iterations 3
GAMG:  Solving for p, Initial residual = 0.033263883, Final residual = 0.00012151655, No Iterations 4
GAMG:  Solving for p, Initial residual = 0.0041771283, Final residual = 3.1448682e-05, No Iterations 3
GAMG:  Solving for p, Initial residual = 0.00083426595, Final residual = 7.5297827e-06, No Iterations 3
GAMG:  Solving for p, Initial residual = 0.00021027308, Final residual = 1.7151505e-06, No Iterations 3
GAMG:  Solving for p, Initial residual = 5.7258287e-05, Final residual = 4.4807159e-07, No Iterations 3
time step continuity errors : sum local = 2.1419872e-07, global = 4.7445242e-08, cumulative = 4.7445242e-08
smoothSolver:  Solving for omega, Initial residual = 1, Final residual = 0.051127635, No Iterations 3
smoothSolver:  Solving for k, Initial residual = 1, Final residual = 0.071200637, No Iterations 2
ExecutionTime = 1.008 s  ClockTime = 1 s

forces forces write:
    Sum of forces
        Total    : (0.083001814 3.0965323 -0.091206197)
        Pressure : (0.082489715 3.0942801 -0.091037631)
        Viscous  : (0.00051209882 0.0022521821 -0.00016856561)
    Sum of moments
        Total    : (-1.9653427 0.094923359 0.46478514)
        Pressure : (-1.9640756 0.094719849 0.4639015)
        Viscous  : (-0.001267127 0.00020351006 0.00088363885)


Time = 2

smoothSolver:  Solving for Ux, Initial residual = 0.030992329, Final residual = 0.0030049195, No Iterations 1
smoothSolver:  Solving for Uy, Initial residual = 0.066854646, Final residual = 0.0064359023, No Iterations 1
smoothSolver:  Solving for Uz, Initial residual = 0.082367533, Final residual = 0.0077833016, No Iterations 1
GAMG:  Solving for p, Initial residual = 0.48030702, Final residual = 0.0036922978, No Iterations 3
GAMG:  Solving for p, Initial residual = 0.029258797, Final residual = 0.00011503332, No Iterations 4
GAMG:  Solving for p, Initial residual = 0.0039620147, Final residual = 3.5791399e-05, No Iterations 3
GAMG:  Solving for p, Initial residual = 0.00084210857, Final residual = 4.1764365e-06, No Iterations 4
GAMG:  Solving for p, Initial residual = 0.00022111355, Final residual = 1.6371286e-06, No Iterations 3
GAMG:  Solving for p, Initial residual = 6.0813879e-05, Final residual = 5.2190291e-07, No Iterations 3
time step continuity errors : sum local = 2.8216167e-07, global = 6.1140088e-08, cumulative = 1.0858533e-07
smoothSolver:  Solving for omega, Initial residual = 0.44760983, Final residual = 0.023876725, No Iterations 3
smoothSolver:  Solving for k, Initial residual = 0.24188894, Final residual = 0.017876118, No Iterations 2
ExecutionTime = 1.469 s  ClockTime = 2 s

forces forces write:
    Sum of forces
        Total    : (0.14233566 4.0667315 -0.10785729)
        Pressure : (0.14144622 4.0631451 -0.10765671)
        Viscous  : (0.0008894387 0.0035864065 -0.00020057827)
    Sum of moments
        Total    : (-2.5896607 0.13346051 0.58803516)
        Pressure : (-2.5876812 0.13302531 0.58697566)
        Viscous  : (-0.0019795154 0.00043520048 0.0010595003)


Time = 3

smoothSolver:  Solving for Ux, Initial residual = 0.028379756, Final residual = 0.00046702469, No Iterations 2
smoothSolver:  Solving for Uy, Initial residual = 0.045448284, Final residual = 0.00101861, No Iterations 2
smoothSolver:  Solving for Uz, Initial residual = 0.054847818, Final residual = 0.00094898722, No Iterations 2
GAMG:  Solving for p, Initial residual = 0.29340476, Final residual = 0.0015659503, No Iterations 3
GAMG:  Solving for p, Initial residual = 0.019911412, Final residual = 0.00014531161, No Iterations 3
GAMG:  Solving for p, Initial residual = 0.0028914976, Final residual = 2.8208165e-05, No Iterations 3
GAMG:  Solving for p, Initial residual = 0.00063299098, Final residual = 6.1038639e-06, No Iterations 3
GAMG:  Solving for p, Initial residual = 0.00016310361, Final residual = 1.5975064e-06, No Iterations 3
GAMG:  Solving for p, Initial residual = 4.6510922e-05, Final residual = 4.1088985e-07, No Iterations 3
time step continuity errors : sum local = 1.8478777e-07, global = 4.6437821e-08, cumulative = 1.5502315e-07
smoothSolver:  Solving for omega, Initial residual = 0.30813638, Final residual = 0.017519619, No Iterations 3
smoothSolver:  Solving for k, Initial residual = 0.14197598, Final residual = 0.0065587227, No Iterations 3
ExecutionTime = 1.951 s  ClockTime = 2 s

forces forces write:
    Sum of forces
        Total    : (0.15252751 4.3882441 -0.12313066)
        Pressure : (0.15126987 4.384485 -0.12303502)
        Viscous  : (0.0012576412 0.0037590797 -9.5640561e-05)
    Sum of moments
        Total    : (-2.7976318 0.14291628 0.59781524)
        Pressure : (-2.7955931 0.14227993 0.59662225)
        Viscous  : (-0.0020386498 0.00063635385 0.001192995)


Time = 4

smoothSolver:  Solving for Ux, Initial residual = 0.02697827, Final residual = 0.0005145903, No Iterations 2
smoothSolver:  Solving for Uy, Initial residual = 0.044414356, Final residual = 0.001328849, No Iterations 2
smoothSolver:  Solving for Uz, Initial residual = 0.046263047, Final residual = 0.00097027488, No Iterations 2
GAMG:  Solving for p, Initial residual = 0.26612082, Final residual = 0.0014875423, No Iterations 3
GAMG:  Solving for p, Initial residual = 0.021255092, Final residual = 0.00014564061, No Iterations 3
GAMG:  Solving for p, Initial residual = 0.002782639, Final residual = 2.6386193e-05, No Iterations 3
GAMG:  Solving for p, Initial residual = 0.00058073257, Final residual = 2.4610552e-06, No Iterations 4
GAMG:  Solving for p, Initial residual = 0.00014221874, Final residual = 1.0051163e-06, No Iterations 3
GAMG:  Solving for p, Initial residual = 4.0594041e-05, Final residual = 3.7301391e-07, No Iterations 3
time step continuity errors : sum local = 1.3916782e-07, global = 2.8261316e-08, cumulative = 1.8328447e-07
smoothSolver:  Solving for omega, Initial residual = 0.22442698, Final residual = 0.013067535, No Iterations 3
smoothSolver:  Solving for k, Initial residual = 0.099166549, Final residual = 0.0051071006, No Iterations 3
ExecutionTime = 2.477 s  ClockTime = 3 s

forces forces write:
    Sum of forces
        Total    : (0.093967676 4.090455 -0.13906405)
        Pressure : (0.092564602 4.0871769 -0.13906902)
        Viscous  : (0.001403074 0.003278174 4.966493e-06)
    Sum of moments
        Total    : (-2.6049626 0.11260314 0.49138019)
        Pressure : (-2.603233 0.11190282 0.49011458)
        Viscous  : (-0.0017295747 0.00070031794 0.0012656128)


Time = 5

smoothSolver:  Solving for Ux, Initial residual = 0.018536791, Final residual = 0.00034606451, No Iterations 2
smoothSolver:  Solving for Uy, Initial residual = 0.030471716, Final residual = 0.00083254385, No Iterations 2
smoothSolver:  Solving for Uz, Initial residual = 0.03628904, Final residual = 0.000747505, No Iterations 2
GAMG:  Solving for p, Initial residual = 0.28615339, Final residual = 0.002082914, No Iterations 3
GAMG:  Solving for p, Initial residual = 0.024891585, Final residual = 0.00010744785, No Iterations 4
GAMG:  Solving for p, Initial residual = 0.0031111832, Final residual = 2.9137033e-05, No Iterations 3
GAMG:  Solving for p, Initial residual = 0.00057371775, Final residual = 3.5047007e-06, No Iterations 4
GAMG:  Solving for p, Initial residual = 0.00013857561, Final residual = 1.0992051e-06, No Iterations 3
GAMG:  Solving for p, Initial residual = 3.6789439e-05, Final residual = 3.3649751e-07, No Iterations 3
time step continuity errors : sum local = 1.2202896e-07, global = 1.9352211e-08, cumulative = 2.0263668e-07
smoothSolver:  Solving for omega, Initial residual = 0.17389444, Final residual = 0.010307153, No Iterations 3
smoothSolver:  Solving for k, Initial residual = 0.07600638, Final residual = 0.0041998234, No Iterations 3
ExecutionTime = 3.335 s  ClockTime = 3 s

forces forces write:
    Sum of forces
        Total    : (0.017735828 3.5878448 -0.14880023)
        Pressure : (0.016264308 3.5851841 -0.14887854)
        Viscous  : (0.0014715198 0.002660715 7.8311534e-05)
    Sum of moments
        Total    : (-2.2780514 0.070594041 0.36880974)
        Pressure : (-2.2766977 0.069871186 0.36750938)
        Viscous  : (-0.0013536815 0.00072285437 0.0013003547)


Time = 6

smoothSolver:  Solving for Ux, Initial residual = 0.014074639, Final residual = 0.0003163966, No Iterations 2
smoothSolver:  Solving for Uy, Initial residual = 0.02415717, Final residual = 0.00056439628, No Iterations 2
smoothSolver:  Solving for Uz, Initial residual = 0.031692598, Final residual = 0.00069185939, No Iterations 2
GAMG:  Solving for p, Initial residual = 0.24051785, Final residual = 0.001554028, No Iterations 3
GAMG:  Solving for p, Initial residual = 0.020456008, Final residual = 0.00018809959, No Iterations 3
GAMG:  Solving for p, Initial residual = 0.0028985621, Final residual = 1.3265217e-05, No Iterations 4
GAMG:  Solving for p, Initial residual = 0.00056298445, Final residual = 4.359406e-06, No Iterations 3
GAMG:  Solving for p, Initial residual = 0.00014087849, Final residual = 1.334124e-06, No Iterations 3
GAMG:  Solving for p, Initial residual = 3.8625102e-05, Final residual = 3.711544e-07, No Iterations 3
time step continuity errors : sum local = 1.3016583e-07, global = -2.5898282e-08, cumulative = 1.767384e-07
smoothSolver:  Solving for omega, Initial residual = 0.14032774, Final residual = 0.0084355703, No Iterations 3
smoothSolver:  Solving for k, Initial residual = 0.061672869, Final residual = 0.0035772681, No Iterations 3
ExecutionTime = 3.84 s  ClockTime = 4 s

forces forces write:
    Sum of forces
        Total    : (-0.015247942 3.2865584 -0.14612544)
        Pressure : (-0.016852703 3.2843834 -0.14625955)
        Viscous  : (0.0016047615 0.0021749301 0.00013410865)
    Sum of moments
        Total    : (-2.081639 0.050392806 0.33386663)
        Pressure : (-2.0805762 0.049607505 0.3325275)
        Viscous  : (-0.0010628072 0.00078530123 0.0013391294)


Time = 7

smoothSolver:  Solving for Ux, Initial residual = 0.014787616, Final residual = 0.00038656842, No Iterations 2
smoothSolver:  Solving for Uy, Initial residual = 0.026680009, Final residual = 0.00075021934, No Iterations 2
smoothSolver:  Solving for Uz, Initial residual = 0.030946541, Final residual = 0.00076300109, No Iterations 2
GAMG:  Solving for p, Initial residual = 0.21194939, Final residual = 0.00099892146, No Iterations 3
GAMG:  Solving for p, Initial residual = 0.01650466, Final residual = 9.4549375e-05, No Iterations 3
GAMG:  Solving for p, Initial residual = 0.0022664361, Final residual = 1.8830774e-05, No Iterations 3
GAMG:  Solving for p, Initial residual = 0.00047825744, Final residual = 4.3013178e-06, No Iterations 3
GAMG:  Solving for p, Initial residual = 0.0001218223, Final residual = 1.1950906e-06, No Iterations 3
GAMG:  Solving for p, Initial residual = 3.3960071e-05, Final residual = 3.1990025e-07, No Iterations 3
time step continuity errors : sum local = 1.1075925e-07, global = -1.7652454e-08, cumulative = 1.5908594e-07
smoothSolver:  Solving for omega, Initial residual = 0.11660101, Final residual = 0.0070889255, No Iterations 3
smoothSolver:  Solving for k, Initial residual = 0.051961691, Final residual = 0.0031194995, No Iterations 3
ExecutionTime = 4.318 s  ClockTime = 4 s

forces forces write:
    Sum of forces
        Total    : (0.013032092 3.3209949 -0.1320743)
        Pressure : (0.011162679 3.3191185 -0.13227016)
        Viscous  : (0.0018694136 0.0018763882 0.00019585965)
    Sum of moments
        Total    : (-2.1046492 0.062846866 0.40594782)
        Pressure : (-2.1037622 0.06192257 0.40455068)
        Viscous  : (-0.00088698819 0.0009242953 0.0013971392)


Time = 8

smoothSolver:  Solving for Ux, Initial residual = 0.013411062, Final residual = 0.0003239487, No Iterations 2
smoothSolver:  Solving for Uy, Initial residual = 0.020192727, Final residual = 0.00059877646, No Iterations 2
smoothSolver:  Solving for Uz, Initial residual = 0.025405394, Final residual = 0.00063520614, No Iterations 2
GAMG:  Solving for p, Initial residual = 0.20591227, Final residual = 0.0013105466, No Iterations 3
GAMG:  Solving for p, Initial residual = 0.016302426, Final residual = 0.00013484286, No Iterations 3
GAMG:  Solving for p, Initial residual = 0.001996683, Final residual = 1.3151751e-05, No Iterations 4
GAMG:  Solving for p, Initial residual = 0.00039135851, Final residual = 3.8733756e-06, No Iterations 3
GAMG:  Solving for p, Initial residual = 9.4064861e-05, Final residual = 4.295353e-07, No Iterations 4
GAMG:  Solving for p, Initial residual = 2.5292654e-05, Final residual = 1.5645525e-07, No Iterations 3
time step continuity errors : sum local = 5.5616844e-08, global = -8.9270821e-09, cumulative = 1.5015886e-07
smoothSolver:  Solving for omega, Initial residual = 0.099066231, Final residual = 0.0060773494, No Iterations 3
smoothSolver:  Solving for k, Initial residual = 0.044967306, Final residual = 0.0027663599, No Iterations 3
ExecutionTime = 5.099 s  ClockTime = 5 s

forces forces write:
    Sum of forces
        Total    : (0.070924195 3.5573246 -0.11552273)
        Pressure : (0.068719808 3.5555949 -0.11578747)
        Viscous  : (0.0022043867 0.0017297419 0.00026474307)
    Sum of moments
        Total    : (-2.2604004 0.092120888 0.51638923)
        Pressure : (-2.2596028 0.09100884 0.51491652)
        Viscous  : (-0.00079755146 0.0011120476 0.0014727071)


Time = 9

smoothSolver:  Solving for Ux, Initial residual = 0.011030466, Final residual = 0.00023963915, No Iterations 2
smoothSolver:  Solving for Uy, Initial residual = 0.013188827, Final residual = 0.00038036191, No Iterations 2
smoothSolver:  Solving for Uz, Initial residual = 0.019941588, Final residual = 0.00048535129, No Iterations 2
GAMG:  Solving for p, Initial residual = 0.17747223, Final residual = 0.001117381, No Iterations 3
GAMG:  Solving for p, Initial residual = 0.014324913, Final residual = 0.00011106391, No Iterations 3
GAMG:  Solving for p, Initial residual = 0.0017473142, Final residual = 9.5431025e-06, No Iterations 4
GAMG:  Solving for p, Initial residual = 0.0003442443, Final residual = 2.8392453e-06, No Iterations 3
GAMG:  Solving for p, Initial residual = 8.2807975e-05, Final residual = 7.913601e-07, No Iterations 3
GAMG:  Solving for p, Initial residual = 2.2554862e-05, Final residual = 2.1174174e-07, No Iterations 3
time step continuity errors : sum local = 7.3860331e-08, global = 1.1133657e-08, cumulative = 1.6129252e-07
smoothSolver:  Solving for omega, Initial residual = 0.085643189, Final residual = 0.0052915766, No Iterations 3
smoothSolver:  Solving for k, Initial residual = 0.039693952, Final residual = 0.0024836475, No Iterations 3
ExecutionTime = 5.858 s  ClockTime = 6 s

forces forces write:
    Sum of forces
        Total    : (0.11293953 3.7771127 -0.10560987)
        Pressure : (0.11039835 3.7754421 -0.10594463)
        Viscous  : (0.0025411802 0.0016706403 0.00033476194)
    Sum of moments
        Total    : (-2.4059497 0.11422522 0.57896715)
        Pressure : (-2.4051958 0.11290201 0.5774163)
        Viscous  : (-0.00075385374 0.001323203 0.0015508499)


Time = 10

smoothSolver:  Solving for Ux, Initial residual = 0.0099714973, Final residual = 0.00023076721, No Iterations 2
smoothSolver:  Solving for Uy, Initial residual = 0.014082581, Final residual = 0.00042119952, No Iterations 2
smoothSolver:  Solving for Uz, Initial residual = 0.019025346, Final residual = 0.000480565, No Iterations 2
GAMG:  Solving for p, Initial residual = 0.15384548, Final residual = 0.00082342901, No Iterations 3
GAMG:  Solving for p, Initial residual = 0.011708704, Final residual = 6.6571223e-05, No Iterations 3
GAMG:  Solving for p, Initial residual = 0.0014855541, Final residual = 9.1569939e-06, No Iterations 3
GAMG:  Solving for p, Initial residual = 0.00030099137, Final residual = 1.7183196e-06, No Iterations 3
GAMG:  Solving for p, Initial residual = 7.4099684e-05, Final residual = 4.0018386e-07, No Iterations 3
GAMG:  Solving for p, Initial residual = 2.0135805e-05, Final residual = 1.1320125e-07, No Iterations 3
time step continuity errors : sum local = 3.7787043e-08, global = 7.2499831e-09, cumulative = 1.685425e-07
smoothSolver:  Solving for omega, Initial residual = 0.07507971, Final residual = 0.0046650205, No Iterations 3
smoothSolver:  Solving for k, Initial residual = 0.035587082, Final residual = 0.002251529, No Iterations 3
ExecutionTime = 6.436 s  ClockTime = 7 s

forces forces write:
    Sum of forces
        Total    : (0.11643467 3.8474667 -0.1062578)
        Pressure : (0.11356886 3.8458266 -0.10666322)
        Viscous  : (0.0028658097 0.0016401023 0.00040541585)
    Sum of moments
        Total    : (-2.4535301 0.11677602 0.55950479)
        Pressure : (-2.4528108 0.11522353 0.55788182)
        Viscous  : (-0.00071932236 0.0015524907 0.0016229682)


Time = 11

smoothSolver:  Solving for Ux, Initial residual = 0.008846577, Final residual = 0.00022012277, No Iterations 2
smoothSolver:  Solving for Uy, Initial residual = 0.013397059, Final residual = 0.00040120611, No Iterations 2
smoothSolver:  Solving for Uz, Initial residual = 0.018477188, Final residual = 0.00047694857, No Iterations 2
GAMG:  Solving for p, Initial residual = 0.14529594, Final residual = 0.00083034047, No Iterations 3
GAMG:  Solving for p, Initial residual = 0.012278222, Final residual = 8.6995167e-05, No Iterations 3
GAMG:  Solving for p, Initial residual = 0.0015512477, Final residual = 8.6836458e-06, No Iterations 4
GAMG:  Solving for p, Initial residual = 0.00030789757, Final residual = 2.5501899e-06, No Iterations 3
GAMG:  Solving for p, Initial residual = 7.4006607e-05, Final residual = 7.364742e-07, No Iterations 3
GAMG:  Solving for p, Initial residual = 2.027596e-05, Final residual = 1.9478985e-07, No Iterations 3
time step continuity errors : sum local = 6.2971339e-08, global = 9.4366263e-09, cumulative = 1.7797913e-07
smoothSolver:  Solving for omega, Initial residual = 0.066583052, Final residual = 0.0041551099, No Iterations 3
smoothSolver:  Solving for k, Initial residual = 0.032296117, Final residual = 0.0020571394, No Iterations 3
ExecutionTime = 7.251 s  ClockTime = 7 s

forces forces write:
    Sum of forces
        Total    : (0.090845475 3.7772854 -0.11368228)
        Pressure : (0.08761484 3.775718 -0.11417762)
        Viscous  : (0.0032306351 0.0015673637 0.00049533971)
    Sum of moments
        Total    : (-2.4083726 0.10405446 0.48966015)
        Pressure : (-2.4077217 0.10222844 0.4879644)
        Viscous  : (-0.00065085968 0.0018260223 0.0016957587)


Time = 12

smoothSolver:  Solving for Ux, Initial residual = 0.0079585472, Final residual = 0.00019681362, No Iterations 2
smoothSolver:  Solving for Uy, Initial residual = 0.010646176, Final residual = 0.00028894525, No Iterations 2
smoothSolver:  Solving for Uz, Initial residual = 0.017125189, Final residual = 0.00043913015, No Iterations 2
GAMG:  Solving for p, Initial residual = 0.13161454, Final residual = 0.00078657946, No Iterations 3
GAMG:  Solving for p, Initial residual = 0.01182081, Final residual = 8.2880416e-05, No Iterations 3
GAMG:  Solving for p, Initial residual = 0.0015190171, Final residual = 8.254122e-06, No Iterations 4
GAMG:  Solving for p, Initial residual = 0.00030428998, Final residual = 2.7759951e-06, No Iterations 3
GAMG:  Solving for p, Initial residual = 7.24469e-05, Final residual = 3.8021066e-07, No Iterations 4
GAMG:  Solving for p, Initial residual = 1.9406564e-05, Final residual = 1.5245941e-07, No Iterations 3
time step continuity errors : sum local = 4.8291801e-08, global = -6.758892e-09, cumulative = 1.7122023e-07
smoothSolver:  Solving for omega, Initial residual = 0.059621311, Final residual = 0.0037329594, No Iterations 3
smoothSolver:  Solving for k, Initial residual = 0.029606163, Final residual = 0.001892469, No Iterations 3
ExecutionTime = 8.293 s  ClockTime = 8 s

forces forces write:
    Sum of forces
        Total    : (0.062332043 3.6644288 -0.12080938)
        Pressure : (0.058634043 3.6630353 -0.12142884)
        Viscous  : (0.0036979998 0.0013935302 0.00061945949)
    Sum of moments
        Total    : (-2.3346092 0.089159185 0.43063934)
        Pressure : (-2.3340897 0.086997133 0.42886009)
        Viscous  : (-0.00051953192 0.0021620511 0.0017792555)


Time = 13

smoothSolver:  Solving for Ux, Initial residual = 0.0079187473, Final residual = 0.0001917938, No Iterations 2
smoothSolver:  Solving for Uy, Initial residual = 0.0098927863, Final residual = 0.00026756384, No Iterations 2
smoothSolver:  Solving for Uz, Initial residual = 0.01602024, Final residual = 0.00042134424, No Iterations 2
GAMG:  Solving for p, Initial residual = 0.11654563, Final residual = 0.00058413064, No Iterations 3
GAMG:  Solving for p, Initial residual = 0.0097527754, Final residual = 5.1998155e-05, No Iterations 3
GAMG:  Solving for p, Initial residual = 0.0012424822, Final residual = 8.0551881e-06, No Iterations 3
GAMG:  Solving for p, Initial residual = 0.00025636262, Final residual = 1.6225437e-06, No Iterations 3
GAMG:  Solving for p, Initial residual = 6.1378786e-05, Final residual = 3.5108086e-07, No Iterations 3
GAMG:  Solving for p, Initial residual = 1.6310525e-05, Final residual = 8.7994122e-08, No Iterations 3
time step continuity errors : sum local = 2.7600568e-08, global = -7.5378338e-09, cumulative = 1.636824e-07
smoothSolver:  Solving for omega, Initial residual = 0.053829458, Final residual = 0.0033786632, No Iterations 3
smoothSolver:  Solving for k, Initial residual = 0.027368016, Final residual = 0.0017513486, No Iterations 3
ExecutionTime = 9.377 s  ClockTime = 9 s

forces forces write:
    Sum of forces
        Total    : (0.051745324 3.599369 -0.12221341)
        Pressure : (0.047428971 3.5982906 -0.12300367)
        Viscous  : (0.0043163523 0.001078403 0.00079025824)
    Sum of moments
        Total    : (-2.2918085 0.082816129 0.42184687)
        Pressure : (-2.2914984 0.080248153 0.4199669)
        Viscous  : (-0.00031010911 0.0025679762 0.0018799753)


Time = 14

smoothSolver:  Solving for Ux, Initial residual = 0.00777555, Final residual = 0.00018687527, No Iterations 2
smoothSolver:  Solving for Uy, Initial residual = 0.0089213807, Final residual = 0.00024947553, No Iterations 2
smoothSolver:  Solving for Uz, Initial residual = 0.014342766, Final residual = 0.00039046665, No Iterations 2
GAMG:  Solving for p, Initial residual = 0.11024008, Final residual = 0.00057328822, No Iterations 3
GAMG:  Solving for p, Initial residual = 0.0087553329, Final residual = 5.7928343e-05, No Iterations 3
GAMG:  Solving for p, Initial residual = 0.0011009229, Final residual = 6.2489876e-06, No Iterations 4
GAMG:  Solving for p, Initial residual = 0.00021808204, Final residual = 1.9699752e-06, No Iterations 3
GAMG:  Solving for p, Initial residual = 5.1877669e-05, Final residual = 2.5138499e-07, No Iterations 4
GAMG:  Solving for p, Initial residual = 1.3519461e-05, Final residual = 9.1039475e-08, No Iterations 3
time step continuity errors : sum local = 2.8687591e-08, global = -4.0224667e-09, cumulative = 1.5965993e-07
smoothSolver:  Solving for omega, Initial residual = 0.048949318, Final residual = 0.0030779238, No Iterations 3
smoothSolver:  Solving for k, Initial residual = 0.025477658, Final residual = 0.0016293195, No Iterations 3
ExecutionTime = 9.827 s  ClockTime = 10 s

forces forces write:
    Sum of forces
        Total    : (0.062340328 3.6103259 -0.11736788)
        Pressure : (0.057219946 3.6097168 -0.1183795)
        Viscous  : (0.0051203824 0.00060915569 0.0010116177)
    Sum of moments
        Total    : (-2.2986707 0.087101825 0.4588884)
        Pressure : (-2.2986453 0.084047329 0.45688902)
        Viscous  : (-2.5362948e-05 0.003054496 0.0019993805)


Time = 15

smoothSolver:  Solving for Ux, Initial residual = 0.0070525015, Final residual = 0.00017067301, No Iterations 2
smoothSolver:  Solving for Uy, Initial residual = 0.007522962, Final residual = 0.00022164873, No Iterations 2
smoothSolver:  Solving for Uz, Initial residual = 0.012920142, Final residual = 0.00035840043, No Iterations 2
GAMG:  Solving for p, Initial residual = 0.10242605, Final residual = 0.00058024962, No Iterations 3
GAMG:  Solving for p, Initial residual = 0.0083830653, Final residual = 6.4768687e-05, No Iterations 3
GAMG:  Solving for p, Initial residual = 0.0010219436, Final residual = 7.1853105e-06, No Iterations 4
GAMG:  Solving for p, Initial residual = 0.00020421107, Final residual = 1.0365187e-06, No Iterations 4
GAMG:  Solving for p, Initial residual = 4.7927889e-05, Final residual = 3.7943839e-07, No Iterations 3
GAMG:  Solving for p, Initial residual = 1.2902431e-05, Final residual = 1.2515219e-07, No Iterations 3
time step continuity errors : sum local = 3.9543564e-08, global = 1.5466972e-09, cumulative = 1.6120663e-07
smoothSolver:  Solving for omega, Initial residual = 0.044791038, Final residual = 0.0028200885, No Iterations 3
smoothSolver:  Solving for k, Initial residual = 0.023863718, Final residual = 0.0015232429, No Iterations 3
ExecutionTime = 11.512 s  ClockTime = 12 s

forces forces write:
    Sum of forces
        Total    : (0.08272751 3.6648014 -0.10960644)
        Pressure : (0.076642725 3.6648086 -0.11087968)
        Viscous  : (0.0060847857 -7.2373777e-06 0.0012732386)
    Sum of moments
        Total    : (-2.3338585 0.096651948 0.50607451)
        Pressure : (-2.3341833 0.093060428 0.50393736)
        Viscous  : (0.00032471634 0.0035915206 0.0021371538)


Time = 16

smoothSolver:  Solving for Ux, Initial residual = 0.0063758324, Final residual = 0.00016385996, No Iterations 2
smoothSolver:  Solving for Uy, Initial residual = 0.0073859413, Final residual = 0.00022469548, No Iterations 2
smoothSolver:  Solving for Uz, Initial residual = 0.012304871, Final residual = 0.00034236155, No Iterations 2
GAMG:  Solving for p, Initial residual = 0.092794924, Final residual = 0.00048302868, No Iterations 3
GAMG:  Solving for p, Initial residual = 0.0075814474, Final residual = 4.9738371e-05, No Iterations 3
GAMG:  Solving for p, Initial residual = 0.00094649396, Final residual = 5.0483674e-06, No Iterations 4
GAMG:  Solving for p, Initial residual = 0.00020063377, Final residual = 1.644479e-06, No Iterations 3
GAMG:  Solving for p, Initial residual = 4.6558669e-05, Final residual = 2.6181669e-07, No Iterations 4
GAMG:  Solving for p, Initial residual = 1.3291965e-05, Final residual = 9.8918817e-08, No Iterations 3
time step continuity errors : sum local = 3.0869524e-08, global = -9.5991035e-10, cumulative = 1.6024672e-07
smoothSolver:  Solving for omega, Initial residual = 0.041217271, Final residual = 0.0025974303, No Iterations 3
smoothSolver:  Solving for k, Initial residual = 0.022475332, Final residual = 0.0014306991, No Iterations 3
ExecutionTime = 13.092 s  ClockTime = 13 s

forces forces write:
    Sum of forces
        Total    : (0.099233414 3.7148183 -0.1031778)
        Pressure : (0.092060653 3.7155506 -0.10473927)
        Viscous  : (0.007172761 -0.0007322816 0.0015614722)
    Sum of moments
        Total    : (-2.3660008 0.1046396 0.53079731)
        Pressure : (-2.3667008 0.10050008 0.52851341)
        Viscous  : (0.00069999437 0.0041395166 0.0022839059)


Time = 17

smoothSolver:  Solving for Ux, Initial residual = 0.0060496346, Final residual = 0.00016356607, No Iterations 2
smoothSolver:  Solving for Uy, Initial residual = 0.0071493983, Final residual = 0.00020874913, No Iterations 2
smoothSolver:  Solving for Uz, Initial residual = 0.01193428, Final residual = 0.00033697291, No Iterations 2
GAMG:  Solving for p, Initial residual = 0.08629908, Final residual = 0.00042710714, No Iterations 3
GAMG:  Solving for p, Initial residual = 0.0071811841, Final residual = 3.6781799e-05, No Iterations 3
GAMG:  Solving for p, Initial residual = 0.00091187582, Final residual = 5.5624638e-06, No Iterations 3
GAMG:  Solving for p, Initial residual = 0.0002040576, Final residual = 9.0604398e-07, No Iterations 3
GAMG:  Solving for p, Initial residual = 4.8234705e-05, Final residual = 1.8881744e-07, No Iterations 3
GAMG:  Solving for p, Initial residual = 1.3728883e-05, Final residual = 4.8398196e-08, No Iterations 3
time step continuity errors : sum local = 1.4837014e-08, global = -3.3418437e-09, cumulative = 1.5690488e-07
smoothSolver:  Solving for omega, Initial residual = 0.038118144, Final residual = 0.0024036238, No Iterations 3
smoothSolver:  Solving for k, Initial residual = 0.021272548, Final residual = 0.0013497764, No Iterations 3
ExecutionTime = 13.569 s  ClockTime = 14 s

forces forces write:
    Sum of forces
        Total    : (0.10504792 3.7313094 -0.10046275)
        Pressure : (0.096664155 3.7328669 -0.10233574)
        Viscous  : (0.0083837606 -0.0015575259 0.0018729831)
    Sum of moments
        Total    : (-2.3763774 0.10751251 0.52378542)
        Pressure : (-2.3774601 0.10282684 0.52134752)
        Viscous  : (0.0010827172 0.0046856714 0.0024379036)


Time = 18

smoothSolver:  Solving for Ux, Initial residual = 0.0059434243, Final residual = 0.00015932201, No Iterations 2
smoothSolver:  Solving for Uy, Initial residual = 0.0061330585, Final residual = 0.00016425464, No Iterations 2
smoothSolver:  Solving for Uz, Initial residual = 0.01124919, Final residual = 0.00032107582, No Iterations 2
GAMG:  Solving for p, Initial residual = 0.08059392, Final residual = 0.00039292063, No Iterations 3
GAMG:  Solving for p, Initial residual = 0.0069661169, Final residual = 3.3630729e-05, No Iterations 3
GAMG:  Solving for p, Initial residual = 0.00092938927, Final residual = 6.0695074e-06, No Iterations 3
GAMG:  Solving for p, Initial residual = 0.00020042807, Final residual = 1.2646456e-06, No Iterations 3
GAMG:  Solving for p, Initial residual = 4.8600776e-05, Final residual = 3.3906229e-07, No Iterations 3
GAMG:  Solving for p, Initial residual = 1.3393179e-05, Final residual = 8.8501917e-08, No Iterations 3
time step continuity errors : sum local = 2.6687515e-08, global = -4.301971e-09, cumulative = 1.5260291e-07
smoothSolver:  Solving for omega, Initial residual = 0.035405326, Final residual = 0.0022337638, No Iterations 3
smoothSolver:  Solving for k, Initial residual = 0.020220539, Final residual = 0.0012786447, No Iterations 3
ExecutionTime = 14.039 s  ClockTime = 14 s

forces forces write:
    Sum of forces
        Total    : (0.10193369 3.7158777 -0.10117775)
        Pressure : (0.092341256 3.7182986 -0.10333104)
        Viscous  : (0.0095924336 -0.0024208978 0.0021532879)
    Sum of moments
        Total    : (-2.3664813 0.10580578 0.49873684)
        Pressure : (-2.3679034 0.1006851 0.49615153)
        Viscous  : (0.0014221223 0.0051206851 0.0025853127)


Time = 19

smoothSolver:  Solving for Ux, Initial residual = 0.0057836063, Final residual = 0.00014630122, No Iterations 2
smoothSolver:  Solving for Uy, Initial residual = 0.0051531643, Final residual = 0.00013662805, No Iterations 2
smoothSolver:  Solving for Uz, Initial residual = 0.010477977, Final residual = 0.0002984728, No Iterations 2
GAMG:  Solving for p, Initial residual = 0.074494118, Final residual = 0.00032876171, No Iterations 3
GAMG:  Solving for p, Initial residual = 0.0063916639, Final residual = 2.7871249e-05, No Iterations 3
GAMG:  Solving for p, Initial residual = 0.00084355982, Final residual = 4.9175331e-06, No Iterations 3
GAMG:  Solving for p, Initial residual = 0.00017992106, Final residual = 1.1078865e-06, No Iterations 3
GAMG:  Solving for p, Initial residual = 4.4081204e-05, Final residual = 3.1218538e-07, No Iterations 3
GAMG:  Solving for p, Initial residual = 1.2216031e-05, Final residual = 8.4006711e-08, No Iterations 3
time step continuity errors : sum local = 2.5039645e-08, global = -4.3766813e-09, cumulative = 1.4822622e-07
smoothSolver:  Solving for omega, Initial residual = 0.033011558, Final residual = 0.0020837043, No Iterations 3
smoothSolver:  Solving for k, Initial residual = 0.019298695, Final residual = 0.0012161062, No Iterations 3
ExecutionTime = 15.423 s  ClockTime = 16 s

forces forces write:
    Sum of forces
        Total    : (0.096730008 3.6898699 -0.10313042)
        Pressure : (0.085927914 3.6931923 -0.10553187)
        Viscous  : (0.010802095 -0.0033223389 0.0024014498)
    Sum of moments
        Total    : (-2.350381 0.10269632 0.47796073)
        Pressure : (-2.3521096 0.097230126 0.47523)
        Viscous  : (0.0017285949 0.005466193 0.0027307301)


Time = 20

smoothSolver:  Solving for Ux, Initial residual = 0.0055421755, Final residual = 0.00013272768, No Iterations 2
smoothSolver:  Solving for Uy, Initial residual = 0.0048021672, Final residual = 0.00013560715, No Iterations 2
smoothSolver:  Solving for Uz, Initial residual = 0.0097869658, Final residual = 0.00027453219, No Iterations 2
GAMG:  Solving for p, Initial residual = 0.06959408, Final residual = 0.00029596059, No Iterations 3
GAMG:  Solving for p, Initial residual = 0.0055321052, Final residual = 2.6127468e-05, No Iterations 3
GAMG:  Solving for p, Initial residual = 0.00072081076, Final residual = 4.7969873e-06, No Iterations 3
GAMG:  Solving for p, Initial residual = 0.00015480122, Final residual = 9.5981985e-07, No Iterations 3
GAMG:  Solving for p, Initial residual = 3.8054343e-05, Final residual = 2.2547185e-07, No Iterations 3
GAMG:  Solving for p, Initial residual = 1.0355056e-05, Final residual = 5.4496156e-08, No Iterations 3
time step continuity errors : sum local = 1.615724e-08, global = 3.1536496e-09, cumulative = 1.5137987e-07
smoothSolver:  Solving for omega, Initial residual = 0.030884186, Final residual = 0.00195025, No Iterations 3
smoothSolver:  Solving for k, Initial residual = 0.018481795, Final residual = 0.0011607494, No Iterations 3
ExecutionTime = 15.813 s  ClockTime = 16 s

forces forces write:
    Sum of forces
        Total    : (0.095027267 3.6732953 -0.10413236)
        Pressure : (0.083232036 3.6774077 -0.10672595)
        Viscous  : (0.011795231 -0.0041123737 0.0025935907)
    Sum of moments
        Total    : (-2.340938 0.10101613 0.4747779)
        Pressure : (-2.3428908 0.095346638 0.47191827)
        Viscous  : (0.0019527936 0.0056694956 0.0028596387)


Time = 21

smoothSolver:  Solving for Ux, Initial residual = 0.0052438467, Final residual = 0.00012419734, No Iterations 2
smoothSolver:  Solving for Uy, Initial residual = 0.0046389401, Final residual = 0.00012805954, No Iterations 2
smoothSolver:  Solving for Uz, Initial residual = 0.009194223, Final residual = 0.00025095144, No Iterations 2
GAMG:  Solving for p, Initial residual = 0.066071138, Final residual = 0.00030646232, No Iterations 3
GAMG:  Solving for p, Initial residual = 0.0051531149, Final residual = 2.6385445e-05, No Iterations 3
GAMG:  Solving for p, Initial residual = 0.00068340699, Final residual = 5.0887483e-06, No Iterations 3
GAMG:  Solving for p, Initial residual = 0.00014589169, Final residual = 1.2348594e-06, No Iterations 3
GAMG:  Solving for p, Initial residual = 3.581919e-05, Final residual = 3.1866913e-07, No Iterations 3
GAMG:  Solving for p, Initial residual = 9.6659681e-06, Final residual = 8.3971514e-08, No Iterations 3
time step continuity errors : sum local = 2.4790283e-08, global = 3.8012628e-09, cumulative = 1.5518114e-07
smoothSolver:  Solving for omega, Initial residual = 0.028977923, Final residual = 0.0018307775, No Iterations 3
smoothSolver:  Solving for k, Initial residual = 0.017750486, Final residual = 0.0011114808, No Iterations 3
ExecutionTime = 16.313 s  ClockTime = 16 s

forces forces write:
    Sum of forces
        Total    : (0.09822935 3.6721491 -0.10325064)
        Pressure : (0.085743747 3.6769127 -0.10593997)
        Viscous  : (0.012485602 -0.0047635972 0.0026893296)
    Sum of moments
        Total    : (-2.3414497 0.1016387 0.48742242)
        Pressure : (-2.3435525 0.095914404 0.48444729)
        Viscous  : (0.0021027126 0.0057243007 0.0029751271)


Time = 22

smoothSolver:  Solving for Ux, Initial residual = 0.0049642023, Final residual = 0.00012156077, No Iterations 2
smoothSolver:  Solving for Uy, Initial residual = 0.0045039766, Final residual = 0.00012251108, No Iterations 2
smoothSolver:  Solving for Uz, Initial residual = 0.0088447664, Final residual = 0.00023504359, No Iterations 2
GAMG:  Solving for p, Initial residual = 0.061843606, Final residual = 0.00028211013, No Iterations 3
GAMG:  Solving for p, Initial residual = 0.005032639, Final residual = 2.4540475e-05, No Iterations 3
GAMG:  Solving for p, Initial residual = 0.00066839681, Final residual = 4.1183653e-06, No Iterations 3
GAMG:  Solving for p, Initial residual = 0.00014831745, Final residual = 1.004802e-06, No Iterations 3
GAMG:  Solving for p, Initial residual = 3.6641033e-05, Final residual = 2.8125485e-07, No Iterations 3
GAMG:  Solving for p, Initial residual = 1.0391638e-05, Final residual = 7.4976068e-08, No Iterations 3
time step continuity errors : sum local = 2.1961614e-08, global = -3.5127867e-09, cumulative = 1.5166835e-07
smoothSolver:  Solving for omega, Initial residual = 0.027256465, Final residual = 0.0017230961, No Iterations 3
smoothSolver:  Solving for k, Initial residual = 0.017093013, Final residual = 0.0010675405, No Iterations 3
ExecutionTime = 17.566 s  ClockTime = 18 s

forces forces write:
    Sum of forces
        Total    : (0.10375773 3.6806172 -0.10108354)
        Pressure : (0.090914714 3.685823 -0.10371828)
        Viscous  : (0.012843012 -0.0052058066 0.0026347355)
    Sum of moments
        Total    : (-2.3477445 0.10356639 0.50455445)
        Pressure : (-2.3498888 0.097964245 0.5014859)
        Viscous  : (0.0021443404 0.005602141 0.0030685422)


Time = 23

smoothSolver:  Solving for Ux, Initial residual = 0.004788115, Final residual = 0.00012133496, No Iterations 2
smoothSolver:  Solving for Uy, Initial residual = 0.0043095793, Final residual = 0.00012223259, No Iterations 2
smoothSolver:  Solving for Uz, Initial residual = 0.0086632814, Final residual = 0.00022895793, No Iterations 2
GAMG:  Solving for p, Initial residual = 0.057147451, Final residual = 0.00023976537, No Iterations 3
GAMG:  Solving for p, Initial residual = 0.0046893247, Final residual = 2.1222851e-05, No Iterations 3
GAMG:  Solving for p, Initial residual = 0.00062980171, Final residual = 3.3762776e-06, No Iterations 3
GAMG:  Solving for p, Initial residual = 0.00014530515, Final residual = 6.1094481e-07, No Iterations 3
GAMG:  Solving for p, Initial residual = 3.5558322e-05, Final residual = 1.526744e-07, No Iterations 3
GAMG:  Solving for p, Initial residual = 1.043813e-05, Final residual = 3.9885377e-08, No Iterations 3
time step continuity errors : sum local = 1.1569142e-08, global = -3.7368625e-09, cumulative = 1.4793149e-07
smoothSolver:  Solving for omega, Initial residual = 0.025692899, Final residual = 0.0016253818, No Iterations 3
smoothSolver:  Solving for k, Initial residual = 0.01649727, Final residual = 0.0010281958, No Iterations 3
ExecutionTime = 18.802 s  ClockTime = 19 s

forces forces write:
    Sum of forces
        Total    : (0.10785485 3.6894598 -0.099083244)
        Pressure : (0.095095295 3.6947724 -0.10142907)
        Viscous  : (0.012759557 -0.0053125691 0.0023458283)
    Sum of moments
        Total    : (-2.3535446 0.10521534 0.51527504)
        Pressure : (-2.3555678 0.099935252 0.51214782)
        Viscous  : (0.0020231827 0.0052800908 0.0031272205)


Time = 24

smoothSolver:  Solving for Ux, Initial residual = 0.0046756021, Final residual = 0.00011918763, No Iterations 2
smoothSolver:  Solving for Uy, Initial residual = 0.0039064514, Final residual = 0.00010737108, No Iterations 2
smoothSolver:  Solving for Uz, Initial residual = 0.0084737896, Final residual = 0.00022553228, No Iterations 2
GAMG:  Solving for p, Initial residual = 0.052968051, Final residual = 0.00021913535, No Iterations 3
GAMG:  Solving for p, Initial residual = 0.00431599, Final residual = 2.0794393e-05, No Iterations 3
GAMG:  Solving for p, Initial residual = 0.00059434694, Final residual = 3.7531521e-06, No Iterations 3
GAMG:  Solving for p, Initial residual = 0.00013736126, Final residual = 8.6392368e-07, No Iterations 3
GAMG:  Solving for p, Initial residual = 3.4140327e-05, Final residual = 2.5372279e-07, No Iterations 3
GAMG:  Solving for p, Initial residual = 9.9216237e-06, Final residual = 7.3735249e-08, No Iterations 3
time step continuity errors : sum local = 2.1147902e-08, global = -4.9165473e-09, cumulative = 1.4301494e-07
smoothSolver:  Solving for omega, Initial residual = 0.024266242, Final residual = 0.0015362022, No Iterations 3
smoothSolver:  Solving for k, Initial residual = 0.015958724, Final residual = 0.0009929963, No Iterations 3
ExecutionTime = 19.436 s  ClockTime = 20 s

forces forces write:
    Sum of forces
        Total    : (0.10874995 3.6926898 -0.098293515)
        Pressure : (0.096436608 3.6978116 -0.10012612)
        Viscous  : (0.012313341 -0.0051217443 0.0018326022)
    Sum of moments
        Total    : (-2.3551305 0.10581712 0.51574367)
        Pressure : (-2.3569291 0.10093771 0.51256409)
        Viscous  : (0.0017985974 0.004879418 0.0031795815)


Time = 25

smoothSolver:  Solving for Ux, Initial residual = 0.0045363731, Final residual = 0.00011301518, No Iterations 2
smoothSolver:  Solving for Uy, Initial residual = 0.0034379281, Final residual = 8.8117557e-05, No Iterations 2
smoothSolver:  Solving for Uz, Initial residual = 0.0081524482, Final residual = 0.00022165517, No Iterations 2
GAMG:  Solving for p, Initial residual = 0.049661967, Final residual = 0.00021860542, No Iterations 3
GAMG:  Solving for p, Initial residual = 0.0041552799, Final residual = 1.8353301e-05, No Iterations 3
GAMG:  Solving for p, Initial residual = 0.00056893411, Final residual = 3.4411265e-06, No Iterations 3
GAMG:  Solving for p, Initial residual = 0.00012907954, Final residual = 7.0067074e-07, No Iterations 3
GAMG:  Solving for p, Initial residual = 3.1715381e-05, Final residual = 2.0597635e-07, No Iterations 3
GAMG:  Solving for p, Initial residual = 8.9803523e-06, Final residual = 5.5714821e-08, No Iterations 3
time step continuity errors : sum local = 1.5781191e-08, global = -3.737591e-09, cumulative = 1.3927735e-07
smoothSolver:  Solving for omega, Initial residual = 0.022959916, Final residual = 0.0014544535, No Iterations 3
smoothSolver:  Solving for k, Initial residual = 0.015472352, Final residual = 0.00096142113, No Iterations 3
ExecutionTime = 19.945 s  ClockTime = 20 s

forces forces write:
    Sum of forces
        Total    : (0.10720736 3.6897805 -0.098572538)
        Pressure : (0.095508688 3.6945801 -0.099876086)
        Viscous  : (0.011698672 -0.0047996411 0.0013035485)
    Sum of moments
        Total    : (-2.3527391 0.10542651 0.50928378)
        Pressure : (-2.3542605 0.10097309 0.50604392)
        Viscous  : (0.0015213967 0.0044534208 0.0032398666)


Time = 26

smoothSolver:  Solving for Ux, Initial residual = 0.0043851909, Final residual = 0.00010683778, No Iterations 2
smoothSolver:  Solving for Uy, Initial residual = 0.003249472, Final residual = 8.2462059e-05, No Iterations 2
smoothSolver:  Solving for Uz, Initial residual = 0.0078066063, Final residual = 0.00021692512, No Iterations 2
GAMG:  Solving for p, Initial residual = 0.04674429, Final residual = 0.00021023803, No Iterations 3
GAMG:  Solving for p, Initial residual = 0.003862627, Final residual = 1.5658614e-05, No Iterations 3
GAMG:  Solving for p, Initial residual = 0.00051955123, Final residual = 2.375082e-06, No Iterations 3
GAMG:  Solving for p, Initial residual = 0.00011653125, Final residual = 1.1432001e-06, No Iterations 2
GAMG:  Solving for p, Initial residual = 2.7812514e-05, Final residual = 1.4647191e-07, No Iterations 3
GAMG:  Solving for p, Initial residual = 7.6544189e-06, Final residual = 7.264152e-08, No Iterations 2
time step continuity errors : sum local = 2.0350852e-08, global = 2.7845478e-09, cumulative = 1.420619e-07
smoothSolver:  Solving for omega, Initial residual = 0.021757054, Final residual = 0.001379179, No Iterations 3
smoothSolver:  Solving for k, Initial residual = 0.015032135, Final residual = 0.00093307888, No Iterations 3
ExecutionTime = 20.666 s  ClockTime = 21 s

forces forces write:
    Sum of forces
        Total    : (0.10508206 3.6842278 -0.099377903)
        Pressure : (0.094042829 3.6886646 -0.10012238)
        Viscous  : (0.011039232 -0.0044367794 0.00074447258)
    Sum of moments
        Total    : (-2.3490594 0.10462096 0.50239221)
        Pressure : (-2.3502848 0.10059123 0.49907583)
        Viscous  : (0.0012253927 0.0040297351 0.0033163769)


Time = 27

smoothSolver:  Solving for Ux, Initial residual = 0.0042168276, Final residual = 0.00010332622, No Iterations 2
smoothSolver:  Solving for Uy, Initial residual = 0.0031852505, Final residual = 8.2729283e-05, No Iterations 2
smoothSolver:  Solving for Uz, Initial residual = 0.0074951006, Final residual = 0.00020993213, No Iterations 2
GAMG:  Solving for p, Initial residual = 0.044131945, Final residual = 0.00019682369, No Iterations 3
GAMG:  Solving for p, Initial residual = 0.0036311326, Final residual = 1.6242657e-05, No Iterations 3
GAMG:  Solving for p, Initial residual = 0.00049526106, Final residual = 2.7034975e-06, No Iterations 3
GAMG:  Solving for p, Initial residual = 0.00011136665, Final residual = 5.3234358e-07, No Iterations 3
GAMG:  Solving for p, Initial residual = 2.6724629e-05, Final residual = 1.2987256e-07, No Iterations 3
GAMG:  Solving for p, Initial residual = 7.4020388e-06, Final residual = 3.3472842e-08, No Iterations 3
time step continuity errors : sum local = 9.2971933e-09, global = 1.6938432e-09, cumulative = 1.4375574e-07
smoothSolver:  Solving for omega, Initial residual = 0.020645155, Final residual = 0.0013095385, No Iterations 3
smoothSolver:  Solving for k, Initial residual = 0.014634777, Final residual = 0.00090765044, No Iterations 3
ExecutionTime = 21.344 s  ClockTime = 21 s

forces forces write:
    Sum of forces
        Total    : (0.10366794 3.6800578 -0.099954743)
        Pressure : (0.093499509 3.6839796 -0.10019493)
        Viscous  : (0.010168428 -0.003921794 0.00024018822)
    Sum of moments
        Total    : (-2.3467098 0.10396521 0.49995791)
        Pressure : (-2.3476403 0.10037225 0.49653583)
        Viscous  : (0.00093047288 0.0035929543 0.0034220813)


Time = 28

smoothSolver:  Solving for Ux, Initial residual = 0.0040250825, Final residual = 0.00010055975, No Iterations 2
smoothSolver:  Solving for Uy, Initial residual = 0.0031182417, Final residual = 7.9363726e-05, No Iterations 2
smoothSolver:  Solving for Uz, Initial residual = 0.0072387955, Final residual = 0.0002011614, No Iterations 2
GAMG:  Solving for p, Initial residual = 0.041429497, Final residual = 0.0001706955, No Iterations 3
GAMG:  Solving for p, Initial residual = 0.0034436431, Final residual = 1.7617488e-05, No Iterations 3
GAMG:  Solving for p, Initial residual = 0.00047658212, Final residual = 3.3992521e-06, No Iterations 3
GAMG:  Solving for p, Initial residual = 0.00010603752, Final residual = 7.3831333e-07, No Iterations 3
GAMG:  Solving for p, Initial residual = 2.5509374e-05, Final residual = 1.8097616e-07, No Iterations 3
GAMG:  Solving for p, Initial residual = 6.9727962e-06, Final residual = 4.6635472e-08, No Iterations 3
time step continuity errors : sum local = 1.2852775e-08, global = 1.9990743e-09, cumulative = 1.4575481e-07
smoothSolver:  Solving for omega, Initial residual = 0.019613519, Final residual = 0.0012447694, No Iterations 3
smoothSolver:  Solving for k, Initial residual = 0.014273955, Final residual = 0.00088473695, No Iterations 3
ExecutionTime = 21.942 s  ClockTime = 22 s

forces forces write:
    Sum of forces
        Total    : (0.10352797 3.678925 -0.10003743)
        Pressure : (0.094335834 3.6823418 -0.099693928)
        Viscous  : (0.009192132 -0.0034168667 -0.00034350493)
    Sum of moments
        Total    : (-2.3466555 0.10373597 0.50287505)
        Pressure : (-2.3473224 0.10057628 0.49931566)
        Viscous  : (0.00066691361 0.003159684 0.003559388)


Time = 29

smoothSolver:  Solving for Ux, Initial residual = 0.0038680007, Final residual = 9.6828706e-05, No Iterations 2
smoothSolver:  Solving for Uy, Initial residual = 0.0029781979, Final residual = 7.2853806e-05, No Iterations 2
smoothSolver:  Solving for Uz, Initial residual = 0.0070715401, Final residual = 0.00019221282, No Iterations 2
GAMG:  Solving for p, Initial residual = 0.038765146, Final residual = 0.00014828949, No Iterations 3
GAMG:  Solving for p, Initial residual = 0.0032523507, Final residual = 1.4086705e-05, No Iterations 3
GAMG:  Solving for p, Initial residual = 0.00045294407, Final residual = 2.298538e-06, No Iterations 3
GAMG:  Solving for p, Initial residual = 0.00010328341, Final residual = 5.493516e-07, No Iterations 3
GAMG:  Solving for p, Initial residual = 2.5140008e-05, Final residual = 1.6250812e-07, No Iterations 3
GAMG:  Solving for p, Initial residual = 7.0319972e-06, Final residual = 4.7438361e-08, No Iterations 3
time step continuity errors : sum local = 1.2970592e-08, global = -1.4869928e-09, cumulative = 1.4426782e-07
smoothSolver:  Solving for omega, Initial residual = 0.018652384, Final residual = 0.0011843751, No Iterations 3
smoothSolver:  Solving for k, Initial residual = 0.013947606, Final residual = 0.0008641573, No Iterations 3
ExecutionTime = 22.527 s  ClockTime = 23 s

forces forces write:
    Sum of forces
        Total    : (0.10428661 3.680072 -0.099548849)
        Pressure : (0.096051892 3.6829995 -0.098679161)
        Viscous  : (0.0082347181 -0.0029275399 -0.00086968846)
    Sum of moments
        Total    : (-2.3481145 0.10384442 0.50860532)
        Pressure : (-2.3485428 0.10110773 0.50488284)
        Viscous  : (0.00042831304 0.00273669 0.0037224793)


Time = 30

smoothSolver:  Solving for Ux, Initial residual = 0.003758745, Final residual = 9.2632665e-05, No Iterations 2
smoothSolver:  Solving for Uy, Initial residual = 0.0027638988, Final residual = 6.6521054e-05, No Iterations 2
smoothSolver:  Solving for Uz, Initial residual = 0.0069026366, Final residual = 0.00018194402, No Iterations 2
GAMG:  Solving for p, Initial residual = 0.036568797, Final residual = 0.00014270833, No Iterations 3
GAMG:  Solving for p, Initial residual = 0.0030555972, Final residual = 1.02461e-05, No Iterations 3
GAMG:  Solving for p, Initial residual = 0.00043367164, Final residual = 1.7375301e-06, No Iterations 3
GAMG:  Solving for p, Initial residual = 0.00010210549, Final residual = 9.6957989e-07, No Iterations 2
GAMG:  Solving for p, Initial residual = 2.5233193e-05, Final residual = 1.3417144e-07, No Iterations 3
GAMG:  Solving for p, Initial residual = 7.4157088e-06, Final residual = 3.0719168e-08, No Iterations 3
time step continuity errors : sum local = 8.3299491e-09, global = -1.4200873e-09, cumulative = 1.4284773e-07
smoothSolver:  Solving for omega, Initial residual = 0.017755435, Final residual = 0.0011279933, No Iterations 3
smoothSolver:  Solving for k, Initial residual = 0.013651684, Final residual = 0.00084563061, No Iterations 3
ExecutionTime = 23.077 s  ClockTime = 23 s

forces forces write:
    Sum of forces
        Total    : (0.10516674 3.6815104 -0.09875613)
        Pressure : (0.097832542 3.684008 -0.097454859)
        Viscous  : (0.0073342023 -0.0024975711 -0.0013012711)
    Sum of moments
        Total    : (-2.3495675 0.10403775 0.51379406)
        Pressure : (-2.3497933 0.10170633 0.50987847)
        Viscous  : (0.00022582973 0.002331419 0.0039155928)


Time = 31

smoothSolver:  Solving for Ux, Initial residual = 0.0036741713, Final residual = 8.8989667e-05, No Iterations 2
smoothSolver:  Solving for Uy, Initial residual = 0.0025204234, Final residual = 6.0010684e-05, No Iterations 2
smoothSolver:  Solving for Uz, Initial residual = 0.0066523119, Final residual = 0.00016875711, No Iterations 2
GAMG:  Solving for p, Initial residual = 0.034357147, Final residual = 0.00014846267, No Iterations 3
GAMG:  Solving for p, Initial residual = 0.0027817326, Final residual = 9.9842608e-06, No Iterations 3
GAMG:  Solving for p, Initial residual = 0.00038610327, Final residual = 2.1779406e-06, No Iterations 3
GAMG:  Solving for p, Initial residual = 9.1701547e-05, Final residual = 5.2110168e-07, No Iterations 3
GAMG:  Solving for p, Initial residual = 2.2565358e-05, Final residual = 1.3652177e-07, No Iterations 3
GAMG:  Solving for p, Initial residual = 6.6904881e-06, Final residual = 3.8088234e-08, No Iterations 3
time step continuity errors : sum local = 1.023927e-08, global = -1.6369618e-09, cumulative = 1.4121077e-07
smoothSolver:  Solving for omega, Initial residual = 0.016916969, Final residual = 0.0010753509, No Iterations 3
smoothSolver:  Solving for k, Initial residual = 0.013384751, Final residual = 0.00082902899, No Iterations 3
ExecutionTime = 23.545 s  ClockTime = 24 s

forces forces write:
    Sum of forces
        Total    : (0.10557896 3.6817784 -0.098064179)
        Pressure : (0.099095911 3.6838876 -0.096378359)
        Viscous  : (0.0064830474 -0.0021091599 -0.0016858209)
    Sum of moments
        Total    : (-2.3499912 0.10410499 0.51647435)
        Pressure : (-2.3500283 0.10216521 0.51233931)
        Viscous  : (3.7089768e-05 0.0019397855 0.0041350356)


Time = 32

smoothSolver:  Solving for Ux, Initial residual = 0.0035786549, Final residual = 8.5563978e-05, No Iterations 2
smoothSolver:  Solving for Uy, Initial residual = 0.0023521548, Final residual = 5.5095419e-05, No Iterations 2
smoothSolver:  Solving for Uz, Initial residual = 0.006364011, Final residual = 0.00015599444, No Iterations 2
GAMG:  Solving for p, Initial residual = 0.032165291, Final residual = 0.00013882581, No Iterations 3
GAMG:  Solving for p, Initial residual = 0.0025445017, Final residual = 1.0798231e-05, No Iterations 3
GAMG:  Solving for p, Initial residual = 0.00034361666, Final residual = 1.8252482e-06, No Iterations 3
GAMG:  Solving for p, Initial residual = 8.0740763e-05, Final residual = 4.4219098e-07, No Iterations 3
GAMG:  Solving for p, Initial residual = 1.955576e-05, Final residual = 1.1814969e-07, No Iterations 3
GAMG:  Solving for p, Initial residual = 5.7368645e-06, Final residual = 3.2552663e-08, No Iterations 3
time step continuity errors : sum local = 8.6757031e-09, global = -1.466312e-09, cumulative = 1.3974446e-07
smoothSolver:  Solving for omega, Initial residual = 0.016132639, Final residual = 0.0010260092, No Iterations 3
smoothSolver:  Solving for k, Initial residual = 0.013142564, Final residual = 0.00081406152, No Iterations 3
ExecutionTime = 23.965 s  ClockTime = 24 s

forces forces write:
    Sum of forces
        Total    : (0.10536035 3.6806439 -0.09776395)
        Pressure : (0.099702679 3.682339 -0.095692431)
        Viscous  : (0.0056576759 -0.001695078 -0.0020715185)
    Sum of moments
        Total    : (-2.3492725 0.1039766 0.51668442)
        Pressure : (-2.3491171 0.10241499 0.51229947)
        Viscous  : (-0.0001553396 0.0015616159 0.0043849434)


Time = 33

smoothSolver:  Solving for Ux, Initial residual = 0.0034640747, Final residual = 8.2389613e-05, No Iterations 2
smoothSolver:  Solving for Uy, Initial residual = 0.0022577613, Final residual = 5.1718375e-05, No Iterations 2
smoothSolver:  Solving for Uz, Initial residual = 0.0060844823, Final residual = 0.00014578522, No Iterations 2
GAMG:  Solving for p, Initial residual = 0.030277669, Final residual = 0.00011998655, No Iterations 3
GAMG:  Solving for p, Initial residual = 0.0023794416, Final residual = 1.0549138e-05, No Iterations 3
GAMG:  Solving for p, Initial residual = 0.00032710275, Final residual = 1.2781122e-06, No Iterations 3
GAMG:  Solving for p, Initial residual = 7.3911737e-05, Final residual = 6.4081162e-07, No Iterations 2
GAMG:  Solving for p, Initial residual = 1.7656513e-05, Final residual = 6.3839183e-08, No Iterations 3
GAMG:  Solving for p, Initial residual = 4.8975777e-06, Final residual = 4.0773164e-08, No Iterations 2
time step continuity errors : sum local = 1.0777524e-08, global = 9.1680434e-10, cumulative = 1.4066126e-07
smoothSolver:  Solving for omega, Initial residual = 0.015398081, Final residual = 0.00097975519, No Iterations 3
smoothSolver:  Solving for k, Initial residual = 0.012924414, Final residual = 0.00080064751, No Iterations 3
ExecutionTime = 24.354 s  ClockTime = 24 s

forces forces write:
    Sum of forces
        Total    : (0.10475573 3.678695 -0.097815871)
        Pressure : (0.099877507 3.6799701 -0.095359168)
        Viscous  : (0.0048782261 -0.001275118 -0.0024567028)
    Sum of moments
        Total    : (-2.34797 0.10369984 0.51576859)
        Pressure : (-2.3476073 0.10250137 0.51111164)
        Viscous  : (-0.00036265677 0.0011984691 0.0046569501)


Time = 34

smoothSolver:  Solving for Ux, Initial residual = 0.0033409787, Final residual = 7.9156329e-05, No Iterations 2
smoothSolver:  Solving for Uy, Initial residual = 0.0021842472, Final residual = 5.031747e-05, No Iterations 2
smoothSolver:  Solving for Uz, Initial residual = 0.005837735, Final residual = 0.00013729706, No Iterations 2
GAMG:  Solving for p, Initial residual = 0.028731249, Final residual = 0.00011024933, No Iterations 3
GAMG:  Solving for p, Initial residual = 0.0022309257, Final residual = 9.1739509e-06, No Iterations 3
GAMG:  Solving for p, Initial residual = 0.00031504815, Final residual = 1.6688163e-06, No Iterations 3
GAMG:  Solving for p, Initial residual = 7.0696011e-05, Final residual = 3.3642122e-07, No Iterations 3
GAMG:  Solving for p, Initial residual = 1.7001579e-05, Final residual = 9.0367008e-08, No Iterations 3
GAMG:  Solving for p, Initial residual = 4.6667045e-06, Final residual = 2.433265e-08, No Iterations 3
time step continuity errors : sum local = 6.3802506e-09, global = 1.133484e-09, cumulative = 1.4179475e-07
smoothSolver:  Solving for omega, Initial residual = 0.014707736, Final residual = 0.00093627857, No Iterations 3
smoothSolver:  Solving for k, Initial residual = 0.0127274, Final residual = 0.0007885689, No Iterations 3
ExecutionTime = 25.234 s  ClockTime = 25 s

forces forces write:
    Sum of forces
        Total    : (0.10411738 3.6768904 -0.097957367)
        Pressure : (0.099968783 3.6777722 -0.095156437)
        Viscous  : (0.0041485944 -0.0008818433 -0.00280093)
    Sum of moments
        Total    : (-2.346831 0.10337066 0.51526446)
        Pressure : (-2.3462507 0.10252683 0.51031985)
        Viscous  : (-0.00058028832 0.00084382549 0.0049446159)


Time = 35

smoothSolver:  Solving for Ux, Initial residual = 0.0032178593, Final residual = 7.5161178e-05, No Iterations 2
smoothSolver:  Solving for Uy, Initial residual = 0.0021015736, Final residual = 4.916652e-05, No Iterations 2
smoothSolver:  Solving for Uz, Initial residual = 0.0056266316, Final residual = 0.00012996455, No Iterations 2
GAMG:  Solving for p, Initial residual = 0.027242411, Final residual = 0.00010418522, No Iterations 3
GAMG:  Solving for p, Initial residual = 0.002059834, Final residual = 8.507433e-06, No Iterations 3
GAMG:  Solving for p, Initial residual = 0.00030124987, Final residual = 1.8942661e-06, No Iterations 3
GAMG:  Solving for p, Initial residual = 6.9855228e-05, Final residual = 4.5202868e-07, No Iterations 3
GAMG:  Solving for p, Initial residual = 1.7399446e-05, Final residual = 1.1510249e-07, No Iterations 3
GAMG:  Solving for p, Initial residual = 4.8542659e-06, Final residual = 3.1928898e-08, No Iterations 3
time step continuity errors : sum local = 8.3042097e-09, global = 1.2707782e-09, cumulative = 1.4306553e-07
smoothSolver:  Solving for omega, Initial residual = 0.014057679, Final residual = 0.00089523957, No Iterations 3
smoothSolver:  Solving for k, Initial residual = 0.012549381, Final residual = 0.00077766896, No Iterations 3
ExecutionTime = 25.977 s  ClockTime = 26 s

forces forces write:
    Sum of forces
        Total    : (0.10365503 3.6758952 -0.09799633)
        Pressure : (0.10019529 3.6764125 -0.09485226)
        Viscous  : (0.0034597376 -0.00051722832 -0.0031440694)
    Sum of moments
        Total    : (-2.34633 0.10304937 0.5159468)
        Pressure : (-2.3455254 0.10254955 0.51069974)
        Viscous  : (-0.00080463205 0.00049981799 0.0052470578)


Time = 36

smoothSolver:  Solving for Ux, Initial residual = 0.003095298, Final residual = 7.1318921e-05, No Iterations 2
smoothSolver:  Solving for Uy, Initial residual = 0.0019905841, Final residual = 4.6391778e-05, No Iterations 2
smoothSolver:  Solving for Uz, Initial residual = 0.0054188373, Final residual = 0.00012279045, No Iterations 2
GAMG:  Solving for p, Initial residual = 0.025817435, Final residual = 9.3004576e-05, No Iterations 3
GAMG:  Solving for p, Initial residual = 0.0019026955, Final residual = 7.0900586e-06, No Iterations 3
GAMG:  Solving for p, Initial residual = 0.00028433413, Final residual = 1.3050996e-06, No Iterations 3
GAMG:  Solving for p, Initial residual = 6.8057108e-05, Final residual = 3.4941229e-07, No Iterations 3
GAMG:  Solving for p, Initial residual = 1.7380202e-05, Final residual = 9.5156618e-08, No Iterations 3
GAMG:  Solving for p, Initial residual = 5.034143e-06, Final residual = 2.5842909e-08, No Iterations 3
time step continuity errors : sum local = 6.6684915e-09, global = -1.2752047e-09, cumulative = 1.4179032e-07
smoothSolver:  Solving for omega, Initial residual = 0.01344568, Final residual = 0.00085649684, No Iterations 3
smoothSolver:  Solving for k, Initial residual = 0.012389631, Final residual = 0.00076791062, No Iterations 3
ExecutionTime = 26.441 s  ClockTime = 27 s

forces forces write:
    Sum of forces
        Total    : (0.10339513 3.6756385 -0.097845178)
        Pressure : (0.10058692 3.6758242 -0.094350881)
        Viscous  : (0.0028082094 -0.00018563837 -0.0034942968)
    Sum of moments
        Total    : (-2.3463992 0.10275033 0.51763176)
        Pressure : (-2.3453705 0.10258434 0.51206851)
        Viscous  : (-0.0010286555 0.00016599326 0.0055632506)


Time = 37

smoothSolver:  Solving for Ux, Initial residual = 0.0029836821, Final residual = 6.7964799e-05, No Iterations 2
smoothSolver:  Solving for Uy, Initial residual = 0.0018587478, Final residual = 4.2123943e-05, No Iterations 2
smoothSolver:  Solving for Uz, Initial residual = 0.005183477, Final residual = 0.00011551211, No Iterations 2
GAMG:  Solving for p, Initial residual = 0.02451279, Final residual = 7.9320981e-05, No Iterations 3
GAMG:  Solving for p, Initial residual = 0.0017660915, Final residual = 5.5720837e-06, No Iterations 3
GAMG:  Solving for p, Initial residual = 0.00026522404, Final residual = 8.6646347e-07, No Iterations 3
GAMG:  Solving for p, Initial residual = 6.4216015e-05, Final residual = 5.3831675e-07, No Iterations 2
GAMG:  Solving for p, Initial residual = 1.655457e-05, Final residual = 6.9674132e-08, No Iterations 3
GAMG:  Solving for p, Initial residual = 4.8503923e-06, Final residual = 4.6388261e-08, No Iterations 2
time step continuity errors : sum local = 1.1881874e-08, global = -1.3065661e-09, cumulative = 1.4048376e-07
smoothSolver:  Solving for omega, Initial residual = 0.012869482, Final residual = 0.00081995845, No Iterations 3
smoothSolver:  Solving for k, Initial residual = 0.012245266, Final residual = 0.00075909337, No Iterations 3
ExecutionTime = 27.36 s  ClockTime = 27 s

forces forces write:
    Sum of forces
        Total    : (0.10324822 3.6755439 -0.097509029)
        Pressure : (0.10104678 3.6754458 -0.09368338)
        Viscous  : (0.00220144 9.8161552e-05 -0.0038256491)
    Sum of moments
        Total    : (-2.3466233 0.10245206 0.5195975)
        Pressure : (-2.3453786 0.10260949 0.51370587)
        Viscous  : (-0.0012447457 -0.00015743144 0.0058916299)


Time = 38

smoothSolver:  Solving for Ux, Initial residual = 0.0028818325, Final residual = 6.4621846e-05, No Iterations 2
smoothSolver:  Solving for Uy, Initial residual = 0.0017290326, Final residual = 3.746759e-05, No Iterations 2
smoothSolver:  Solving for Uz, Initial residual = 0.0049279617, Final residual = 0.00010868472, No Iterations 2
GAMG:  Solving for p, Initial residual = 0.023283854, Final residual = 7.2125317e-05, No Iterations 3
GAMG:  Solving for p, Initial residual = 0.0016744113, Final residual = 1.6463457e-05, No Iterations 2
GAMG:  Solving for p, Initial residual = 0.00026349116, Final residual = 1.3712071e-06, No Iterations 3
GAMG:  Solving for p, Initial residual = 6.5382204e-05, Final residual = 2.4497354e-07, No Iterations 3
GAMG:  Solving for p, Initial residual = 1.6511211e-05, Final residual = 6.3791901e-08, No Iterations 3
GAMG:  Solving for p, Initial residual = 4.9092366e-06, Final residual = 1.937934e-08, No Iterations 3
time step continuity errors : sum local = 4.9289609e-09, global = -1.1121734e-09, cumulative = 1.3937158e-07
smoothSolver:  Solving for omega, Initial residual = 0.012326509, Final residual = 0.00078545945, No Iterations 3
smoothSolver:  Solving for k, Initial residual = 0.012116537, Final residual = 0.00075120667, No Iterations 3
ExecutionTime = 27.85 s  ClockTime = 28 s

forces forces write:
    Sum of forces
        Total    : (0.10308399 3.6750655 -0.097084486)
        Pressure : (0.10145225 3.6747266 -0.092954853)
        Viscous  : (0.0016317377 0.00033899333 -0.0041296328)
    Sum of moments
        Total    : (-2.3465788 0.10213032 0.52119639)
        Pressure : (-2.345126 0.10260012 0.51496333)
        Viscous  : (-0.0014527978 -0.00046979962 0.0062330663)


Time = 39

smoothSolver:  Solving for Ux, Initial residual = 0.0027802817, Final residual = 6.1310529e-05, No Iterations 2
smoothSolver:  Solving for Uy, Initial residual = 0.0016285779, Final residual = 3.4522006e-05, No Iterations 2
smoothSolver:  Solving for Uz, Initial residual = 0.0046900967, Final residual = 0.00010343044, No Iterations 2
GAMG:  Solving for p, Initial residual = 0.022039831, Final residual = 7.2683875e-05, No Iterations 3
GAMG:  Solving for p, Initial residual = 0.0015626844, Final residual = 5.625115e-06, No Iterations 3
GAMG:  Solving for p, Initial residual = 0.00024148943, Final residual = 9.0131958e-07, No Iterations 3
GAMG:  Solving for p, Initial residual = 5.9555538e-05, Final residual = 5.4286668e-07, No Iterations 2
GAMG:  Solving for p, Initial residual = 1.5126796e-05, Final residual = 9.2664589e-08, No Iterations 3
GAMG:  Solving for p, Initial residual = 4.5020841e-06, Final residual = 2.1568831e-08, No Iterations 3
time step continuity errors : sum local = 5.4497023e-09, global = -9.3367699e-10, cumulative = 1.3843791e-07
smoothSolver:  Solving for omega, Initial residual = 0.01181409, Final residual = 0.00075284008, No Iterations 3
smoothSolver:  Solving for k, Initial residual = 0.012001633, Final residual = 0.00074413383, No Iterations 3
ExecutionTime = 28.628 s  ClockTime = 29 s

forces forces write:
    Sum of forces
        Total    : (0.10283746 3.6740698 -0.096629017)
        Pressure : (0.10173743 3.6735286 -0.0922392)
        Viscous  : (0.0011000343 0.00054118249 -0.0043898169)
    Sum of moments
        Total    : (-2.3461385 0.10176587 0.52222175)
        Pressure : (-2.3444801 0.10253935 0.51563466)
        Viscous  : (-0.0016584097 -0.00077347868 0.006587092)


Time = 40

smoothSolver:  Solving for Ux, Initial residual = 0.002672544, Final residual = 5.8235569e-05, No Iterations 2
smoothSolver:  Solving for Uy, Initial residual = 0.0015616793, Final residual = 3.2793943e-05, No Iterations 2
smoothSolver:  Solving for Uz, Initial residual = 0.004484687, Final residual = 9.9246265e-05, No Iterations 2
GAMG:  Solving for p, Initial residual = 0.020771316, Final residual = 7.1378812e-05, No Iterations 3
GAMG:  Solving for p, Initial residual = 0.0014352311, Final residual = 5.79551e-06, No Iterations 3
GAMG:  Solving for p, Initial residual = 0.00021434105, Final residual = 8.3035788e-07, No Iterations 3
GAMG:  Solving for p, Initial residual = 5.1212821e-05, Final residual = 4.595312e-07, No Iterations 2
GAMG:  Solving for p, Initial residual = 1.2759009e-05, Final residual = 5.9939684e-08, No Iterations 3
GAMG:  Solving for p, Initial residual = 3.6993164e-06, Final residual = 3.269026e-08, No Iterations 2
time step continuity errors : sum local = 8.2094685e-09, global = -1.090346e-09, cumulative = 1.3734756e-07
smoothSolver:  Solving for omega, Initial residual = 0.011329875, Final residual = 0.00072196002, No Iterations 3
smoothSolver:  Solving for k, Initial residual = 0.011899267, Final residual = 0.00073777768, No Iterations 3
ExecutionTime = 29.22 s  ClockTime = 29 s

forces forces write:
    Sum of forces
        Total    : (0.1024951 3.672922 -0.096225189)
        Pressure : (0.10190209 3.6721699 -0.09158434)
        Viscous  : (0.00059300662 0.00075214193 -0.0046408497)
    Sum of moments
        Total    : (-2.3455048 0.10136386 0.5228904)
        Pressure : (-2.3436246 0.10243135 0.51593475)
        Viscous  : (-0.0018802725 -0.0010674964 0.0069556458)


Time = 41

smoothSolver:  Solving for Ux, Initial residual = 0.0025637175, Final residual = 5.5642296e-05, No Iterations 2
smoothSolver:  Solving for Uy, Initial residual = 0.0015130884, Final residual = 3.174244e-05, No Iterations 2
smoothSolver:  Solving for Uz, Initial residual = 0.0043291629, Final residual = 9.6822184e-05, No Iterations 2
GAMG:  Solving for p, Initial residual = 0.019563163, Final residual = 6.5956711e-05, No Iterations 3
GAMG:  Solving for p, Initial residual = 0.0013354998, Final residual = 6.0189738e-06, No Iterations 3
GAMG:  Solving for p, Initial residual = 0.00020144744, Final residual = 1.0700481e-06, No Iterations 3
GAMG:  Solving for p, Initial residual = 4.9102876e-05, Final residual = 1.9250083e-07, No Iterations 3
GAMG:  Solving for p, Initial residual = 1.2134561e-05, Final residual = 4.7153616e-08, No Iterations 3
GAMG:  Solving for p, Initial residual = 3.500357e-06, Final residual = 3.4953347e-08, No Iterations 2
time step continuity errors : sum local = 8.7298675e-09, global = 1.7206815e-09, cumulative = 1.3906824e-07
smoothSolver:  Solving for omega, Initial residual = 0.010872017, Final residual = 0.00069269176, No Iterations 3
smoothSolver:  Solving for k, Initial residual = 0.011809686, Final residual = 0.0007321442, No Iterations 3
ExecutionTime = 29.71 s  ClockTime = 30 s

forces forces write:
    Sum of forces
        Total    : (0.10211107 3.6721956 -0.095877495)
        Pressure : (0.10200373 3.6711988 -0.090989479)
        Viscous  : (0.00010733547 0.0009968683 -0.0048880168)
    Sum of moments
        Total    : (-2.3450558 0.10094281 0.52361909)
        Pressure : (-2.3429284 0.10229536 0.51627858)
        Viscous  : (-0.0021274323 -0.0013525482 0.0073405075)


Time = 42

smoothSolver:  Solving for Ux, Initial residual = 0.0024597106, Final residual = 5.3454484e-05, No Iterations 2
smoothSolver:  Solving for Uy, Initial residual = 0.0014454417, Final residual = 3.021062e-05, No Iterations 2
smoothSolver:  Solving for Uz, Initial residual = 0.0041869591, Final residual = 9.4448939e-05, No Iterations 2
GAMG:  Solving for p, Initial residual = 0.018407961, Final residual = 5.7867877e-05, No Iterations 3
GAMG:  Solving for p, Initial residual = 0.0012662093, Final residual = 5.4328163e-06, No Iterations 3
GAMG:  Solving for p, Initial residual = 0.0001947625, Final residual = 1.0134573e-06, No Iterations 3
GAMG:  Solving for p, Initial residual = 4.7894428e-05, Final residual = 1.9777366e-07, No Iterations 3
GAMG:  Solving for p, Initial residual = 1.1902562e-05, Final residual = 5.049815e-08, No Iterations 3
GAMG:  Solving for p, Initial residual = 3.498391e-06, Final residual = 1.3171309e-08, No Iterations 3
time step continuity errors : sum local = 3.272745e-09, global = 7.6084893e-10, cumulative = 1.3982909e-07
smoothSolver:  Solving for omega, Initial residual = 0.010438282, Final residual = 0.00066490445, No Iterations 3
smoothSolver:  Solving for k, Initial residual = 0.011731285, Final residual = 0.00072713971, No Iterations 3
ExecutionTime = 30.143 s  ClockTime = 30 s

forces forces write:
    Sum of forces
        Total    : (0.10175143 3.6722963 -0.095539728)
        Pressure : (0.10210761 3.6710212 -0.090406197)
        Viscous  : (-0.00035618161 0.0012750639 -0.0051335311)
    Sum of moments
        Total    : (-2.3451005 0.1005158 0.52471882)
        Pressure : (-2.3426957 0.10214448 0.51697909)
        Viscous  : (-0.0024047513 -0.0016286754 0.0077397239)


Time = 43

smoothSolver:  Solving for Ux, Initial residual = 0.0023564877, Final residual = 5.1120262e-05, No Iterations 2
smoothSolver:  Solving for Uy, Initial residual = 0.0013532112, Final residual = 2.8170414e-05, No Iterations 2
smoothSolver:  Solving for Uz, Initial residual = 0.004036025, Final residual = 9.1057244e-05, No Iterations 2
GAMG:  Solving for p, Initial residual = 0.017335708, Final residual = 5.0040704e-05, No Iterations 3
GAMG:  Solving for p, Initial residual = 0.0011839815, Final residual = 4.659077e-06, No Iterations 3
GAMG:  Solving for p, Initial residual = 0.00018543834, Final residual = 8.4028178e-07, No Iterations 3
GAMG:  Solving for p, Initial residual = 4.5641404e-05, Final residual = 1.7846586e-07, No Iterations 3
GAMG:  Solving for p, Initial residual = 1.159589e-05, Final residual = 4.4268639e-08, No Iterations 3
GAMG:  Solving for p, Initial residual = 3.4196745e-06, Final residual = 1.1997616e-08, No Iterations 3
time step continuity errors : sum local = 2.9659733e-09, global = 7.6591902e-10, cumulative = 1.4059501e-07
smoothSolver:  Solving for omega, Initial residual = 0.010027366, Final residual = 0.00063852064, No Iterations 3
smoothSolver:  Solving for k, Initial residual = 0.011663382, Final residual = 0.00072273054, No Iterations 3
ExecutionTime = 30.763 s  ClockTime = 31 s

forces forces write:
    Sum of forces
        Total    : (0.10144638 3.6731816 -0.095157854)
        Pressure : (0.1022439 3.6716016 -0.089788173)
        Viscous  : (-0.00079751692 0.0015800291 -0.0053696814)
    Sum of moments
        Total    : (-2.345655 0.10008335 0.52621354)
        Pressure : (-2.3429468 0.10198009 0.51806178)
        Viscous  : (-0.0027082202 -0.0018967369 0.0081517506)


Time = 44

smoothSolver:  Solving for Ux, Initial residual = 0.0022528579, Final residual = 4.8573568e-05, No Iterations 2
smoothSolver:  Solving for Uy, Initial residual = 0.0012609817, Final residual = 2.6235604e-05, No Iterations 2
smoothSolver:  Solving for Uz, Initial residual = 0.0038768054, Final residual = 8.6711121e-05, No Iterations 2
GAMG:  Solving for p, Initial residual = 0.016362057, Final residual = 4.3230172e-05, No Iterations 3
GAMG:  Solving for p, Initial residual = 0.0010967144, Final residual = 3.8940612e-06, No Iterations 3
GAMG:  Solving for p, Initial residual = 0.00017319196, Final residual = 7.0780843e-07, No Iterations 3
GAMG:  Solving for p, Initial residual = 4.3150857e-05, Final residual = 1.5290515e-07, No Iterations 3
GAMG:  Solving for p, Initial residual = 1.0946719e-05, Final residual = 3.7536871e-08, No Iterations 3
GAMG:  Solving for p, Initial residual = 3.2194396e-06, Final residual = 2.9289631e-08, No Iterations 2
time step continuity errors : sum local = 7.2037083e-09, global = 1.763951e-09, cumulative = 1.4235896e-07
smoothSolver:  Solving for omega, Initial residual = 0.0096374611, Final residual = 0.00061345025, No Iterations 3
smoothSolver:  Solving for k, Initial residual = 0.011606322, Final residual = 0.00071894754, No Iterations 3
ExecutionTime = 31.368 s  ClockTime = 31 s

forces forces write:
    Sum of forces
        Total    : (0.10118384 3.6744131 -0.094703223)
        Pressure : (0.10240232 3.6724977 -0.089113095)
        Viscous  : (-0.001218481 0.0019153789 -0.0055901282)
    Sum of moments
        Total    : (-2.3464438 0.099635653 0.5278827)
        Pressure : (-2.3434103 0.1017935 0.51930622)
        Viscous  : (-0.0030334674 -0.002157844 0.0085764809)


Time = 45

smoothSolver:  Solving for Ux, Initial residual = 0.0021506719, Final residual = 4.6096266e-05, No Iterations 2
smoothSolver:  Solving for Uy, Initial residual = 0.0011782543, Final residual = 2.4469868e-05, No Iterations 2
smoothSolver:  Solving for Uz, Initial residual = 0.0037214504, Final residual = 8.2005358e-05, No Iterations 2
GAMG:  Solving for p, Initial residual = 0.015471218, Final residual = 4.0995503e-05, No Iterations 3
GAMG:  Solving for p, Initial residual = 0.001020838, Final residual = 3.8004978e-06, No Iterations 3
GAMG:  Solving for p, Initial residual = 0.0001608456, Final residual = 7.5756225e-07, No Iterations 3
GAMG:  Solving for p, Initial residual = 3.9911121e-05, Final residual = 1.5644002e-07, No Iterations 3
GAMG:  Solving for p, Initial residual = 9.9670833e-06, Final residual = 3.9706573e-08, No Iterations 3
GAMG:  Solving for p, Initial residual = 2.9117251e-06, Final residual = 2.9046032e-08, No Iterations 2
time step continuity errors : sum local = 7.1073012e-09, global = -1.2764328e-09, cumulative = 1.4108253e-07
[...]
smoothSolver:  Solving for k, Initial residual = 0.001455964, Final residual = 7.2473831e-05, No Iterations 3
ExecutionTime = 76.938 s  ClockTime = 77 s

forces forces write:
    Sum of forces
        Total    : (0.10147526 3.7385857 -0.057104622)
        Pressure : (0.10456365 3.690975 -0.056701613)
        Viscous  : (-0.0030883937 0.047610694 -0.00040300925)
    Sum of moments
        Total    : (-2.3735068 0.074065131 0.58586057)
        Pressure : (-2.3424712 0.083830226 0.5389655)
        Viscous  : (-0.031035649 -0.0097650947 0.046895074)


Time = 135

smoothSolver:  Solving for Ux, Initial residual = 0.00015220356, Final residual = 3.6659086e-06, No Iterations 2
smoothSolver:  Solving for Uy, Initial residual = 0.00012135761, Final residual = 3.6860323e-06, No Iterations 2
smoothSolver:  Solving for Uz, Initial residual = 0.00031304118, Final residual = 9.0714011e-06, No Iterations 2
GAMG:  Solving for p, Initial residual = 0.00067507476, Final residual = 3.4843305e-06, No Iterations 3
GAMG:  Solving for p, Initial residual = 5.9904628e-05, Final residual = 5.4130075e-07, No Iterations 3
GAMG:  Solving for p, Initial residual = 1.0244148e-05, Final residual = 5.5597335e-08, No Iterations 4
GAMG:  Solving for p, Initial residual = 2.4615104e-06, Final residual = 1.6078413e-08, No Iterations 3
GAMG:  Solving for p, Initial residual = 6.2157692e-07, Final residual = 4.6950761e-09, No Iterations 3
GAMG:  Solving for p, Initial residual = 1.8022501e-07, Final residual = 9.7709538e-09, No Iterations 1
time step continuity errors : sum local = 1.8193718e-09, global = -1.466373e-10, cumulative = 1.4042158e-07
smoothSolver:  Solving for omega, Initial residual = 0.0002376408, Final residual = 1.2140869e-05, No Iterations 3
smoothSolver:  Solving for k, Initial residual = 0.001402075, Final residual = 6.9800331e-05, No Iterations 3
ExecutionTime = 77.302 s  ClockTime = 77 s

forces forces write:
    Sum of forces
        Total    : (0.10152281 3.7388113 -0.057011545)
        Pressure : (0.10459705 3.691098 -0.056627911)
        Viscous  : (-0.0030742395 0.047713236 -0.00038363438)
    Sum of moments
        Total    : (-2.3735946 0.074018169 0.5860427)
        Pressure : (-2.3424865 0.083782444 0.53905959)
        Viscous  : (-0.031108082 -0.0097642749 0.046983106)


Time = 136

smoothSolver:  Solving for Ux, Initial residual = 0.00014786904, Final residual = 3.5691115e-06, No Iterations 2
smoothSolver:  Solving for Uy, Initial residual = 0.00011781214, Final residual = 3.5774673e-06, No Iterations 2
smoothSolver:  Solving for Uz, Initial residual = 0.00030427991, Final residual = 8.8054954e-06, No Iterations 2
GAMG:  Solving for p, Initial residual = 0.00065379434, Final residual = 3.2933768e-06, No Iterations 3
GAMG:  Solving for p, Initial residual = 5.7015783e-05, Final residual = 5.0281944e-07, No Iterations 3
GAMG:  Solving for p, Initial residual = 9.7306113e-06, Final residual = 5.1270607e-08, No Iterations 4
GAMG:  Solving for p, Initial residual = 2.3327292e-06, Final residual = 1.5009769e-08, No Iterations 3
GAMG:  Solving for p, Initial residual = 5.9338292e-07, Final residual = 4.392191e-09, No Iterations 3
GAMG:  Solving for p, Initial residual = 1.7110264e-07, Final residual = 9.2247523e-09, No Iterations 1
time step continuity errors : sum local = 1.7163546e-09, global = -1.3692283e-10, cumulative = 1.4028465e-07
smoothSolver:  Solving for omega, Initial residual = 0.00023310245, Final residual = 1.1932823e-05, No Iterations 3
smoothSolver:  Solving for k, Initial residual = 0.0013506474, Final residual = 6.7253611e-05, No Iterations 3
ExecutionTime = 77.661 s  ClockTime = 78 s

forces forces write:
    Sum of forces
        Total    : (0.1015684 3.739029 -0.056923328)
        Pressure : (0.10462787 3.6912146 -0.056557894)
        Viscous  : (-0.0030594733 0.047814318 -0.00036543436)
    Sum of moments
        Total    : (-2.3736806 0.073974406 0.58621757)
        Pressure : (-2.3425025 0.08373727 0.53914769)
        Viscous  : (-0.031178097 -0.0097628643 0.047069882)


Time = 137

smoothSolver:  Solving for Ux, Initial residual = 0.00014367069, Final residual = 3.4750429e-06, No Iterations 2
smoothSolver:  Solving for Uy, Initial residual = 0.00011435528, Final residual = 3.4700152e-06, No Iterations 2
smoothSolver:  Solving for Uz, Initial residual = 0.00029559052, Final residual = 8.5423603e-06, No Iterations 2
GAMG:  Solving for p, Initial residual = 0.00063181624, Final residual = 3.134562e-06, No Iterations 3
GAMG:  Solving for p, Initial residual = 5.4752993e-05, Final residual = 4.7300212e-07, No Iterations 3
GAMG:  Solving for p, Initial residual = 9.2772268e-06, Final residual = 4.8404418e-08, No Iterations 4
GAMG:  Solving for p, Initial residual = 2.2187029e-06, Final residual = 1.4317029e-08, No Iterations 3
GAMG:  Solving for p, Initial residual = 5.6886158e-07, Final residual = 4.2062373e-09, No Iterations 3
GAMG:  Solving for p, Initial residual = 1.6311317e-07, Final residual = 8.873452e-09, No Iterations 1
time step continuity errors : sum local = 1.6497992e-09, global = -1.3126324e-10, cumulative = 1.4015339e-07
smoothSolver:  Solving for omega, Initial residual = 0.00022871685, Final residual = 1.1731469e-05, No Iterations 3
smoothSolver:  Solving for k, Initial residual = 0.0013015687, Final residual = 6.482702e-05, No Iterations 3
ExecutionTime = 78.011 s  ClockTime = 78 s

forces forces write:
    Sum of forces
        Total    : (0.10161282 3.739241 -0.056839478)
        Pressure : (0.10465676 3.6913264 -0.056491274)
        Viscous  : (-0.0030439346 0.047914572 -0.00034820398)
    Sum of moments
        Total    : (-2.3737649 0.073933479 0.58638717)
        Pressure : (-2.3425191 0.083694487 0.53923121)
        Viscous  : (-0.031245743 -0.0097610081 0.047155953)


Time = 138

smoothSolver:  Solving for Ux, Initial residual = 0.00013961573, Final residual = 3.3830982e-06, No Iterations 2
smoothSolver:  Solving for Uy, Initial residual = 0.00011091949, Final residual = 3.3642341e-06, No Iterations 2
smoothSolver:  Solving for Uz, Initial residual = 0.00028706199, Final residual = 8.2833554e-06, No Iterations 2
GAMG:  Solving for p, Initial residual = 0.00061086453, Final residual = 3.0055566e-06, No Iterations 3
GAMG:  Solving for p, Initial residual = 5.3009601e-05, Final residual = 4.4583927e-07, No Iterations 3
GAMG:  Solving for p, Initial residual = 9.0013326e-06, Final residual = 4.6121658e-08, No Iterations 4
GAMG:  Solving for p, Initial residual = 2.1518018e-06, Final residual = 1.3491188e-08, No Iterations 3
GAMG:  Solving for p, Initial residual = 5.5080312e-07, Final residual = 9.4193329e-09, No Iterations 2
GAMG:  Solving for p, Initial residual = 1.5985409e-07, Final residual = 3.7968849e-09, No Iterations 2
time step continuity errors : sum local = 7.054549e-10, global = -1.662999e-10, cumulative = 1.3998709e-07
smoothSolver:  Solving for omega, Initial residual = 0.00022447252, Final residual = 1.1534985e-05, No Iterations 3
smoothSolver:  Solving for k, Initial residual = 0.0012547312, Final residual = 6.2514459e-05, No Iterations 3
ExecutionTime = 78.391 s  ClockTime = 78 s

forces forces write:
    Sum of forces
        Total    : (0.10165654 3.739448 -0.056760438)
        Pressure : (0.10468429 3.691434 -0.05642802)
        Viscous  : (-0.0030277453 0.048013966 -0.00033241828)
    Sum of moments
        Total    : (-2.3738472 0.073895837 0.58655258)
        Pressure : (-2.3425362 0.083654149 0.53931128)
        Viscous  : (-0.031311036 -0.0097583118 0.047241302)


Time = 139

smoothSolver:  Solving for Ux, Initial residual = 0.00013568438, Final residual = 3.293343e-06, No Iterations 2
smoothSolver:  Solving for Uy, Initial residual = 0.00010752826, Final residual = 3.2610669e-06, No Iterations 2
smoothSolver:  Solving for Uz, Initial residual = 0.00027868874, Final residual = 8.0297919e-06, No Iterations 2
GAMG:  Solving for p, Initial residual = 0.00059019395, Final residual = 2.8882953e-06, No Iterations 3
GAMG:  Solving for p, Initial residual = 5.0939889e-05, Final residual = 4.216271e-07, No Iterations 3
GAMG:  Solving for p, Initial residual = 8.5705313e-06, Final residual = 4.3951833e-08, No Iterations 4
GAMG:  Solving for p, Initial residual = 2.0273014e-06, Final residual = 1.2733158e-08, No Iterations 3
GAMG:  Solving for p, Initial residual = 5.2052848e-07, Final residual = 8.8572893e-09, No Iterations 2
GAMG:  Solving for p, Initial residual = 1.4994443e-07, Final residual = 3.622159e-09, No Iterations 2
time step continuity errors : sum local = 6.7255602e-10, global = -1.5883275e-10, cumulative = 1.3982826e-07
smoothSolver:  Solving for omega, Initial residual = 0.00022035775, Final residual = 1.1342186e-05, No Iterations 3
smoothSolver:  Solving for k, Initial residual = 0.0012100251, Final residual = 6.0309611e-05, No Iterations 3
ExecutionTime = 79.081 s  ClockTime = 79 s

forces forces write:
    Sum of forces
        Total    : (0.10169933 3.7396491 -0.056686586)
        Pressure : (0.10471046 3.6915371 -0.056368028)
        Viscous  : (-0.0030111346 0.048111993 -0.00031855756)
    Sum of moments
        Total    : (-2.3739276 0.073861747 0.58671343)
        Pressure : (-2.3425534 0.083616262 0.53938782)
        Viscous  : (-0.031374174 -0.0097545156 0.047325607)


Time = 140

smoothSolver:  Solving for Ux, Initial residual = 0.00013188962, Final residual = 3.2060817e-06, No Iterations 2
smoothSolver:  Solving for Uy, Initial residual = 0.00010428353, Final residual = 3.1600707e-06, No Iterations 2
smoothSolver:  Solving for Uz, Initial residual = 0.00027043941, Final residual = 7.7825187e-06, No Iterations 2
GAMG:  Solving for p, Initial residual = 0.00057053577, Final residual = 2.7823088e-06, No Iterations 3
GAMG:  Solving for p, Initial residual = 4.8914136e-05, Final residual = 4.0307644e-07, No Iterations 3
GAMG:  Solving for p, Initial residual = 8.2435808e-06, Final residual = 4.2697958e-08, No Iterations 4
GAMG:  Solving for p, Initial residual = 1.952389e-06, Final residual = 1.2324726e-08, No Iterations 3
GAMG:  Solving for p, Initial residual = 5.0235644e-07, Final residual = 8.5977369e-09, No Iterations 2
GAMG:  Solving for p, Initial residual = 1.4456825e-07, Final residual = 3.5800179e-09, No Iterations 2
time step continuity errors : sum local = 6.6432346e-10, global = -1.582963e-10, cumulative = 1.3966996e-07
smoothSolver:  Solving for omega, Initial residual = 0.00021635399, Final residual = 1.115281e-05, No Iterations 3
smoothSolver:  Solving for k, Initial residual = 0.0011673529, Final residual = 5.8206756e-05, No Iterations 3
ExecutionTime = 79.481 s  ClockTime = 80 s

forces forces write:
    Sum of forces
        Total    : (0.10174126 3.7398446 -0.056616654)
        Pressure : (0.10473538 3.6916359 -0.056310909)
        Viscous  : (-0.0029941243 0.048208692 -0.00030574471)
    Sum of moments
        Total    : (-2.3740059 0.07383029 0.58686989)
        Pressure : (-2.3425707 0.083580541 0.53946104)
        Viscous  : (-0.031435164 -0.0097502516 0.047408855)


Time = 141

smoothSolver:  Solving for Ux, Initial residual = 0.00012821948, Final residual = 3.1212534e-06, No Iterations 2
smoothSolver:  Solving for Uy, Initial residual = 0.00010109949, Final residual = 3.0608646e-06, No Iterations 2
smoothSolver:  Solving for Uz, Initial residual = 0.00026235665, Final residual = 7.5405784e-06, No Iterations 2
GAMG:  Solving for p, Initial residual = 0.00055128555, Final residual = 2.6634928e-06, No Iterations 3
GAMG:  Solving for p, Initial residual = 4.6945336e-05, Final residual = 3.8368736e-07, No Iterations 3
GAMG:  Solving for p, Initial residual = 7.9351247e-06, Final residual = 4.0860526e-08, No Iterations 4
GAMG:  Solving for p, Initial residual = 1.8720112e-06, Final residual = 1.1865629e-08, No Iterations 3
GAMG:  Solving for p, Initial residual = 4.8472787e-07, Final residual = 8.325561e-09, No Iterations 2
GAMG:  Solving for p, Initial residual = 1.4000278e-07, Final residual = 3.5255703e-09, No Iterations 2
time step continuity errors : sum local = 6.5383887e-10, global = -1.5798322e-10, cumulative = 1.3951198e-07
smoothSolver:  Solving for omega, Initial residual = 0.00021245362, Final residual = 1.096735e-05, No Iterations 3
smoothSolver:  Solving for k, Initial residual = 0.0011265881, Final residual = 5.6199282e-05, No Iterations 3
ExecutionTime = 79.893 s  ClockTime = 80 s

forces forces write:
    Sum of forces
        Total    : (0.10178188 3.7400345 -0.056550315)
        Pressure : (0.10475878 3.6917304 -0.056256406)
        Viscous  : (-0.0029768972 0.048304154 -0.00029390918)
    Sum of moments
        Total    : (-2.3740822 0.073801178 0.58702146)
        Pressure : (-2.3425882 0.083546702 0.53953049)
        Viscous  : (-0.031494051 -0.0097455247 0.047490969)


Time = 142

smoothSolver:  Solving for Ux, Initial residual = 0.00012466893, Final residual = 3.0388821e-06, No Iterations 2
smoothSolver:  Solving for Uy, Initial residual = 9.7987234e-05, Final residual = 2.9629285e-06, No Iterations 2
smoothSolver:  Solving for Uz, Initial residual = 0.00025449742, Final residual = 7.3035268e-06, No Iterations 2
GAMG:  Solving for p, Initial residual = 0.00053273751, Final residual = 2.5340361e-06, No Iterations 3
GAMG:  Solving for p, Initial residual = 4.5047551e-05, Final residual = 3.6671986e-07, No Iterations 3
GAMG:  Solving for p, Initial residual = 7.6228394e-06, Final residual = 3.8968702e-08, No Iterations 4
GAMG:  Solving for p, Initial residual = 1.7942896e-06, Final residual = 1.137562e-08, No Iterations 3
GAMG:  Solving for p, Initial residual = 4.6490742e-07, Final residual = 8.0105247e-09, No Iterations 2
GAMG:  Solving for p, Initial residual = 1.3439293e-07, Final residual = 9.8840356e-09, No Iterations 1
time step continuity errors : sum local = 1.8320427e-09, global = -2.2327233e-10, cumulative = 1.3928871e-07
smoothSolver:  Solving for omega, Initial residual = 0.0002086385, Final residual = 1.0784626e-05, No Iterations 3
smoothSolver:  Solving for k, Initial residual = 0.0010876388, Final residual = 5.4281925e-05, No Iterations 3
ExecutionTime = 80.295 s  ClockTime = 80 s

forces forces write:
    Sum of forces
        Total    : (0.10182108 3.740219 -0.056487512)
        Pressure : (0.10478053 3.6918208 -0.056204296)
        Viscous  : (-0.0029594466 0.048398183 -0.0002832156)
    Sum of moments
        Total    : (-2.374157 0.073774147 0.58716793)
        Pressure : (-2.3426061 0.083514463 0.53959606)
        Viscous  : (-0.031550924 -0.0097403162 0.047571871)


Time = 143

smoothSolver:  Solving for Ux, Initial residual = 0.00012123378, Final residual = 2.9587722e-06, No Iterations 2
smoothSolver:  Solving for Uy, Initial residual = 9.4947543e-05, Final residual = 2.8671669e-06, No Iterations 2
smoothSolver:  Solving for Uz, Initial residual = 0.00024678499, Final residual = 7.0705393e-06, No Iterations 2
GAMG:  Solving for p, Initial residual = 0.00051493808, Final residual = 2.4108444e-06, No Iterations 3
GAMG:  Solving for p, Initial residual = 4.3221357e-05, Final residual = 3.5319987e-07, No Iterations 3
GAMG:  Solving for p, Initial residual = 7.2867872e-06, Final residual = 3.7304251e-08, No Iterations 4
GAMG:  Solving for p, Initial residual = 1.7139457e-06, Final residual = 1.0975395e-08, No Iterations 3
GAMG:  Solving for p, Initial residual = 4.4323733e-07, Final residual = 7.7151504e-09, No Iterations 2
GAMG:  Solving for p, Initial residual = 1.2868693e-07, Final residual = 9.636507e-09, No Iterations 1
time step continuity errors : sum local = 1.7852287e-09, global = -2.178902e-10, cumulative = 1.3907082e-07
smoothSolver:  Solving for omega, Initial residual = 0.00020490532, Final residual = 1.0604576e-05, No Iterations 3
smoothSolver:  Solving for k, Initial residual = 0.0010504175, Final residual = 5.2449718e-05, No Iterations 3
ExecutionTime = 80.755 s  ClockTime = 81 s

forces forces write:
    Sum of forces
        Total    : (0.10185909 3.7403987 -0.056427804)
        Pressure : (0.10480083 3.6919077 -0.056154325)
        Viscous  : (-0.0029417424 0.048490961 -0.00027347847)
    Sum of moments
        Total    : (-2.3742303 0.073748911 0.58730987)
        Pressure : (-2.3426245 0.083483596 0.53965821)
        Viscous  : (-0.031605815 -0.0097346847 0.047651654)


Time = 144

smoothSolver:  Solving for Ux, Initial residual = 0.00011791418, Final residual = 2.8811601e-06, No Iterations 2
smoothSolver:  Solving for Uy, Initial residual = 9.1979959e-05, Final residual = 2.7726167e-06, No Iterations 2
smoothSolver:  Solving for Uz, Initial residual = 0.0002392028, Final residual = 6.8423238e-06, No Iterations 2
GAMG:  Solving for p, Initial residual = 0.00049786265, Final residual = 2.2996542e-06, No Iterations 3
GAMG:  Solving for p, Initial residual = 4.1631616e-05, Final residual = 3.4049135e-07, No Iterations 3
GAMG:  Solving for p, Initial residual = 7.0289501e-06, Final residual = 3.505162e-08, No Iterations 4
GAMG:  Solving for p, Initial residual = 1.6421586e-06, Final residual = 1.0477842e-08, No Iterations 3
GAMG:  Solving for p, Initial residual = 4.2454583e-07, Final residual = 7.3854889e-09, No Iterations 2
GAMG:  Solving for p, Initial residual = 1.2293585e-07, Final residual = 9.3862562e-09, No Iterations 1
time step continuity errors : sum local = 1.7380088e-09, global = -2.1328249e-10, cumulative = 1.3885753e-07
smoothSolver:  Solving for omega, Initial residual = 0.00020124804, Final residual = 1.0426761e-05, No Iterations 3
smoothSolver:  Solving for k, Initial residual = 0.0010148274, Final residual = 5.0697569e-05, No Iterations 3
ExecutionTime = 81.335 s  ClockTime = 81 s

forces forces write:
    Sum of forces
        Total    : (0.10189605 3.7405738 -0.056370764)
        Pressure : (0.10481987 3.6919913 -0.056106331)
        Viscous  : (-0.0029238215 0.048582509 -0.00026443348)
    Sum of moments
        Total    : (-2.3743021 0.073725125 0.58744766)
        Pressure : (-2.3426434 0.083453973 0.53971731)
        Viscous  : (-0.031658775 -0.0097288472 0.047730347)


Time = 145

smoothSolver:  Solving for Ux, Initial residual = 0.00011469853, Final residual = 2.8056429e-06, No Iterations 2
smoothSolver:  Solving for Uy, Initial residual = 8.9049507e-05, Final residual = 2.6799879e-06, No Iterations 2
smoothSolver:  Solving for Uz, Initial residual = 0.00023181653, Final residual = 6.6195899e-06, No Iterations 2
GAMG:  Solving for p, Initial residual = 0.00048178179, Final residual = 2.2039436e-06, No Iterations 3
GAMG:  Solving for p, Initial residual = 4.0124092e-05, Final residual = 3.3128314e-07, No Iterations 3
GAMG:  Solving for p, Initial residual = 6.8324113e-06, Final residual = 3.4177512e-08, No Iterations 4
GAMG:  Solving for p, Initial residual = 1.5938314e-06, Final residual = 1.0396084e-08, No Iterations 3
GAMG:  Solving for p, Initial residual = 4.1319313e-07, Final residual = 7.3022269e-09, No Iterations 2
GAMG:  Solving for p, Initial residual = 1.1957223e-07, Final residual = 9.3921249e-09, No Iterations 1
time step continuity errors : sum local = 1.7382818e-09, global = -2.1826775e-10, cumulative = 1.3863927e-07
smoothSolver:  Solving for omega, Initial residual = 0.00019766165, Final residual = 1.0251208e-05, No Iterations 3
smoothSolver:  Solving for k, Initial residual = 0.00098078991, Final residual = 4.902139e-05, No Iterations 3
ExecutionTime = 81.745 s  ClockTime = 82 s


SIMPLE solution converged in 145 iterations

forces forces write:
    Sum of forces
        Total    : (0.10193219 3.7407448 -0.056316199)
        Pressure : (0.1048379 3.6920719 -0.05606026)
        Viscous  : (-0.0029057068 0.048672826 -0.00025593878)
    Sum of moments
        Total    : (-2.3743723 0.073702734 0.58758174)
        Pressure : (-2.3426625 0.083425641 0.5397738)
        Viscous  : (-0.031709847 -0.009722907 0.047807935)


End

Finalising parallel run
