/*---------------------------------------------------------------------------*\
| =========                 |                                                 |
| \\      /  F ield         | OpenFOAM: The Open Source CFD Toolbox           |
|  \\    /   O peration     | Version:  v2012                                 |
|   \\  /    A nd           | Website:  www.openfoam.com                      |
|    \\/     M anipulation  |                                                 |
\*---------------------------------------------------------------------------*/
Build  : 79e353b84e-20201222 OPENFOAM=2012
Arch   : "LSB;label=32;scalar=64"
Exec   : simpleFoam -parallel
Date   : Apr 17 2022
Time   : 21:43:57
Host   : DESKTOP-OGTHBU9
PID    : 14392
I/O    : uncollated
Case   : C:/Users/ZEEMAR~1/AppData/Local/Temp/case
nProcs : 4
Hosts  :
(
    (DESKTOP-OGTHBU9 4)
)
Pstream initialized with:
    floatTransfer      : 0
    nProcsSimpleSum    : 0
    commsType          : nonBlocking
    polling iterations : 0
trapFpe: Floating point exception trapping enabled (FOAM_SIGFPE).
fileModificationChecking : Monitoring run-time modified files using timeStampMaster (fileModificationSkew 5, maxFileModificationPolls 20)
allowSystemOperations : Allowing user-supplied system call operations

// * * * * * * * * * * * * * * * * * * * * * * * * * * * * * * * * * * * * * //
Create time

Create mesh for time = 0


SIMPLE: convergence criteria
    field p	 tolerance 0.001
    field U	 tolerance 0.001
    field "(k|epsilon|omega|f|v2|nuTilda)"	 tolerance 0.001

Reading field p

Reading field U

Reading/calculating face flux field phi

Selecting incompressible transport model Newtonian
Selecting turbulence model type RAS
Selecting RAS turbulence model kOmegaSST
Selecting patchDistMethod meshWave
RAS
{
    RASModel        kOmegaSST;
    turbulence      on;
    printCoeffs     on;
    alphaK1         0.85;
    alphaK2         1;
    alphaOmega1     0.5;
    alphaOmega2     0.856;
    gamma1          0.55555556;
    gamma2          0.44;
    beta1           0.075;
    beta2           0.0828;
    betaStar        0.09;
    a1              0.31;
    b1              1;
    c1              10;
    F3              false;
    decayControl    false;
    kInf            0;
    omegaInf        0;
}

No MRF models present

No finite volume options present

Starting time loop

forces forces:
    rho: rhoInf
    Freestream density (rhoInf) set to 1
    Not including porosity effects
    Fields will be written

Time = 1

smoothSolver:  Solving for Ux, Initial residual = 0.027536004, Final residual = 0.00055288061, No Iterations 2
smoothSolver:  Solving for Uy, Initial residual = 0.085305081, Final residual = 0.0015564509, No Iterations 2
smoothSolver:  Solving for Uz, Initial residual = 0.101109, Final residual = 0.0085197965, No Iterations 1
GAMG:  Solving for p, Initial residual = 0.4974311, Final residual = 0.0025955947, No Iterations 4
GAMG:  Solving for p, Initial residual = 0.028245696, Final residual = 0.00013154787, No Iterations 4
GAMG:  Solving for p, Initial residual = 0.0030349145, Final residual = 2.5685129e-05, No Iterations 4
GAMG:  Solving for p, Initial residual = 0.00058777476, Final residual = 3.1887859e-06, No Iterations 5
GAMG:  Solving for p, Initial residual = 0.00014385994, Final residual = 1.103544e-06, No Iterations 4
GAMG:  Solving for p, Initial residual = 4.0038266e-05, Final residual = 3.5837991e-07, No Iterations 4
time step continuity errors : sum local = 1.2800973e-07, global = -5.6243182e-09, cumulative = -5.6243182e-09
smoothSolver:  Solving for omega, Initial residual = 1, Final residual = 0.058236681, No Iterations 3
smoothSolver:  Solving for k, Initial residual = 1, Final residual = 0.080338127, No Iterations 2
ExecutionTime = 3.42 s  ClockTime = 4 s

forces forces write:
    Sum of forces
        Total    : (0.072922109 3.4073791 -0.11027614)
        Pressure : (0.07259003 3.4049056 -0.10988774)
        Viscous  : (0.00033207937 0.0024734354 -0.00038839563)
    Sum of moments
        Total    : (-2.1699683 0.093185532 0.53154467)
        Pressure : (-2.1685779 0.093053059 0.53058172)
        Viscous  : (-0.0013903625 0.00013247265 0.00096295361)


Time = 2

smoothSolver:  Solving for Ux, Initial residual = 0.014485731, Final residual = 0.0014439349, No Iterations 1
smoothSolver:  Solving for Uy, Initial residual = 0.033873657, Final residual = 0.0033174701, No Iterations 1
smoothSolver:  Solving for Uz, Initial residual = 0.05512963, Final residual = 0.0046336318, No Iterations 1
GAMG:  Solving for p, Initial residual = 0.42237023, Final residual = 0.0025232166, No Iterations 4
GAMG:  Solving for p, Initial residual = 0.027055081, Final residual = 0.00012703351, No Iterations 4
GAMG:  Solving for p, Initial residual = 0.0029548314, Final residual = 2.4843834e-05, No Iterations 4
GAMG:  Solving for p, Initial residual = 0.00059594939, Final residual = 3.1358674e-06, No Iterations 5
GAMG:  Solving for p, Initial residual = 0.00014901933, Final residual = 1.142564e-06, No Iterations 4
GAMG:  Solving for p, Initial residual = 4.2936123e-05, Final residual = 3.835684e-07, No Iterations 4
time step continuity errors : sum local = 1.3745216e-07, global = -6.4571221e-09, cumulative = -1.208144e-08
smoothSolver:  Solving for omega, Initial residual = 0.49171275, Final residual = 0.029708266, No Iterations 3
smoothSolver:  Solving for k, Initial residual = 0.22898631, Final residual = 0.018768344, No Iterations 2
ExecutionTime = 5.13 s  ClockTime = 5 s

forces forces write:
    Sum of forces
        Total    : (0.09209022 4.0818921 -0.13220591)
        Pressure : (0.091559743 4.0777902 -0.13162013)
        Viscous  : (0.00053047633 0.0041019369 -0.00058578138)
    Sum of moments
        Total    : (-2.5950234 0.11639328 0.51929986)
        Pressure : (-2.5927258 0.11611806 0.51811376)
        Viscous  : (-0.0022975621 0.00027521678 0.0011861042)


Time = 3

smoothSolver:  Solving for Ux, Initial residual = 0.014474958, Final residual = 0.0002642085, No Iterations 2
smoothSolver:  Solving for Uy, Initial residual = 0.028530293, Final residual = 0.00065494558, No Iterations 2
smoothSolver:  Solving for Uz, Initial residual = 0.039282019, Final residual = 0.00064068911, No Iterations 2
GAMG:  Solving for p, Initial residual = 0.26642038, Final residual = 0.0011593974, No Iterations 4
GAMG:  Solving for p, Initial residual = 0.016784804, Final residual = 0.00016513857, No Iterations 3
GAMG:  Solving for p, Initial residual = 0.0021749021, Final residual = 1.6871971e-05, No Iterations 4
GAMG:  Solving for p, Initial residual = 0.00046155037, Final residual = 3.5680936e-06, No Iterations 4
GAMG:  Solving for p, Initial residual = 0.00011772304, Final residual = 1.0001923e-06, No Iterations 4
GAMG:  Solving for p, Initial residual = 3.5228074e-05, Final residual = 3.0787378e-07, No Iterations 4
time step continuity errors : sum local = 9.1618514e-08, global = -4.5248726e-09, cumulative = -1.6606313e-08
smoothSolver:  Solving for omega, Initial residual = 0.35332011, Final residual = 0.022655368, No Iterations 3
smoothSolver:  Solving for k, Initial residual = 0.12916092, Final residual = 0.0064284863, No Iterations 3
ExecutionTime = 6.88 s  ClockTime = 7 s

forces forces write:
    Sum of forces
        Total    : (0.086637081 4.2035786 -0.14415055)
        Pressure : (0.085790507 4.1991762 -0.143612)
        Viscous  : (0.0008465741 0.0044024637 -0.00053855051)
    Sum of moments
        Total    : (-2.6693705 0.1182747 0.47609604)
        Pressure : (-2.666939 0.11783831 0.47477591)
        Viscous  : (-0.0024314983 0.00043639292 0.0013201291)


Time = 4

smoothSolver:  Solving for Ux, Initial residual = 0.015304073, Final residual = 0.00033014961, No Iterations 2
smoothSolver:  Solving for Uy, Initial residual = 0.030406819, Final residual = 0.00084916209, No Iterations 2
smoothSolver:  Solving for Uz, Initial residual = 0.035333496, Final residual = 0.00073154123, No Iterations 2
GAMG:  Solving for p, Initial residual = 0.26555196, Final residual = 0.0011694813, No Iterations 4
GAMG:  Solving for p, Initial residual = 0.018831717, Final residual = 7.7742513e-05, No Iterations 4
GAMG:  Solving for p, Initial residual = 0.0021412167, Final residual = 1.3774896e-05, No Iterations 4
GAMG:  Solving for p, Initial residual = 0.0004311398, Final residual = 3.0191644e-06, No Iterations 4
GAMG:  Solving for p, Initial residual = 0.00010458914, Final residual = 7.4360481e-07, No Iterations 4
GAMG:  Solving for p, Initial residual = 2.9736191e-05, Final residual = 2.0576263e-07, No Iterations 4
time step continuity errors : sum local = 5.7774931e-08, global = 1.8343207e-09, cumulative = -1.4771992e-08
smoothSolver:  Solving for omega, Initial residual = 0.26539667, Final residual = 0.017360103, No Iterations 3
smoothSolver:  Solving for k, Initial residual = 0.089021678, Final residual = 0.0049835208, No Iterations 3
ExecutionTime = 8.77 s  ClockTime = 9 s

forces forces write:
    Sum of forces
        Total    : (0.036938353 3.9020538 -0.15370141)
        Pressure : (0.035914635 3.8981486 -0.153286)
        Viscous  : (0.0010237177 0.0039052301 -0.00041540727)
    Sum of moments
        Total    : (-2.4759738 0.088958371 0.41797433)
        Pressure : (-2.4738644 0.08846884 0.41660356)
        Viscous  : (-0.0021093607 0.0004895309 0.0013707666)


Time = 5

smoothSolver:  Solving for Ux, Initial residual = 0.010016713, Final residual = 0.00019650749, No Iterations 2
smoothSolver:  Solving for Uy, Initial residual = 0.017974229, Final residual = 0.00045845658, No Iterations 2
smoothSolver:  Solving for Uz, Initial residual = 0.026633788, Final residual = 0.00054779688, No Iterations 2
GAMG:  Solving for p, Initial residual = 0.28189081, Final residual = 0.0016821869, No Iterations 4
GAMG:  Solving for p, Initial residual = 0.020218436, Final residual = 0.00010572565, No Iterations 4
GAMG:  Solving for p, Initial residual = 0.0021687297, Final residual = 1.9164957e-05, No Iterations 4
GAMG:  Solving for p, Initial residual = 0.00039318829, Final residual = 2.2589076e-06, No Iterations 5
GAMG:  Solving for p, Initial residual = 9.2580449e-05, Final residual = 6.9704453e-07, No Iterations 4
GAMG:  Solving for p, Initial residual = 2.4480399e-05, Final residual = 1.986763e-07, No Iterations 4
time step continuity errors : sum local = 6.1203509e-08, global = 2.2431705e-09, cumulative = -1.2528822e-08
smoothSolver:  Solving for omega, Initial residual = 0.21020048, Final residual = 0.013915767, No Iterations 3
smoothSolver:  Solving for k, Initial residual = 0.067695013, Final residual = 0.0040333818, No Iterations 3
ExecutionTime = 11.24 s  ClockTime = 11 s

forces forces write:
    Sum of forces
        Total    : (-0.018784077 3.5411286 -0.16012384)
        Pressure : (-0.019949943 3.5378947 -0.15984136)
        Viscous  : (0.0011658666 0.0032338848 -0.00028247144)
    Sum of moments
        Total    : (-2.2463113 0.05381216 0.38485214)
        Pressure : (-2.2446191 0.053276108 0.3834751)
        Viscous  : (-0.0016922107 0.00053605182 0.0013770423)


Time = 6

smoothSolver:  Solving for Ux, Initial residual = 0.0071134494, Final residual = 0.00014256618, No Iterations 2
smoothSolver:  Solving for Uy, Initial residual = 0.013080404, Final residual = 0.00031537818, No Iterations 2
smoothSolver:  Solving for Uz, Initial residual = 0.023007376, Final residual = 0.00050485228, No Iterations 2
GAMG:  Solving for p, Initial residual = 0.21306222, Final residual = 0.0011135656, No Iterations 4
GAMG:  Solving for p, Initial residual = 0.015486552, Final residual = 6.3965863e-05, No Iterations 4
GAMG:  Solving for p, Initial residual = 0.0018266902, Final residual = 1.2229939e-05, No Iterations 4
GAMG:  Solving for p, Initial residual = 0.0003586553, Final residual = 2.914605e-06, No Iterations 4
GAMG:  Solving for p, Initial residual = 8.8299276e-05, Final residual = 8.1063165e-07, No Iterations 4
GAMG:  Solving for p, Initial residual = 2.4709199e-05, Final residual = 2.1665491e-07, No Iterations 4
time step continuity errors : sum local = 6.3783236e-08, global = 2.3509978e-09, cumulative = -1.0177824e-08
smoothSolver:  Solving for omega, Initial residual = 0.17266742, Final residual = 0.011520386, No Iterations 3
smoothSolver:  Solving for k, Initial residual = 0.054649148, Final residual = 0.0033708254, No Iterations 3
ExecutionTime = 13.14 s  ClockTime = 13 s

forces forces write:
    Sum of forces
        Total    : (-0.030643672 3.3891632 -0.15716088)
        Pressure : (-0.031982668 3.3864205 -0.15698215)
        Viscous  : (0.0013389965 0.0027426511 -0.00017873215)
    Sum of moments
        Total    : (-2.1509787 0.043920547 0.40578057)
        Pressure : (-2.1495881 0.04329808 0.40440471)
        Viscous  : (-0.0013905912 0.0006224672 0.0013758552)


Time = 7

smoothSolver:  Solving for Ux, Initial residual = 0.008221538, Final residual = 0.00020310917, No Iterations 2
smoothSolver:  Solving for Uy, Initial residual = 0.017917125, Final residual = 0.00051807493, No Iterations 2
smoothSolver:  Solving for Uz, Initial residual = 0.024045435, Final residual = 0.00060113528, No Iterations 2
GAMG:  Solving for p, Initial residual = 0.18251598, Final residual = 0.0017899884, No Iterations 3
GAMG:  Solving for p, Initial residual = 0.013612055, Final residual = 6.7251365e-05, No Iterations 4
GAMG:  Solving for p, Initial residual = 0.0015199601, Final residual = 1.0624298e-05, No Iterations 4
GAMG:  Solving for p, Initial residual = 0.00030681573, Final residual = 2.2629708e-06, No Iterations 4
GAMG:  Solving for p, Initial residual = 7.5098793e-05, Final residual = 5.8755998e-07, No Iterations 4
GAMG:  Solving for p, Initial residual = 2.1980084e-05, Final residual = 1.6104057e-07, No Iterations 4
time step continuity errors : sum local = 4.2698e-08, global = -1.3086812e-09, cumulative = -1.1486505e-08
smoothSolver:  Solving for omega, Initial residual = 0.14560585, Final residual = 0.0097676649, No Iterations 3
smoothSolver:  Solving for k, Initial residual = 0.045879941, Final residual = 0.0028873354, No Iterations 3
ExecutionTime = 16.039 s  ClockTime = 16 s

forces forces write:
    Sum of forces
        Total    : (0.010377513 3.4764114 -0.14409849)
        Pressure : (0.0088258217 3.473903 -0.14398844)
        Viscous  : (0.0015516913 0.0025084119 -0.00011005103)
    Sum of moments
        Total    : (-2.2087622 0.065132652 0.4680567)
        Pressure : (-2.2075151 0.064387098 0.46665838)
        Viscous  : (-0.0012470888 0.00074555451 0.001398316)


Time = 8

smoothSolver:  Solving for Ux, Initial residual = 0.0069727486, Final residual = 0.00016551085, No Iterations 2
smoothSolver:  Solving for Uy, Initial residual = 0.012801102, Final residual = 0.00036366866, No Iterations 2
smoothSolver:  Solving for Uz, Initial residual = 0.019977038, Final residual = 0.00050193658, No Iterations 2
GAMG:  Solving for p, Initial residual = 0.1850728, Final residual = 0.00094688002, No Iterations 4
GAMG:  Solving for p, Initial residual = 0.015397469, Final residual = 7.3821281e-05, No Iterations 4
GAMG:  Solving for p, Initial residual = 0.0015456231, Final residual = 1.2997862e-05, No Iterations 4
GAMG:  Solving for p, Initial residual = 0.00030054357, Final residual = 2.6669328e-06, No Iterations 4
GAMG:  Solving for p, Initial residual = 7.0247275e-05, Final residual = 5.8994303e-07, No Iterations 4
GAMG:  Solving for p, Initial residual = 1.9037148e-05, Final residual = 1.4157005e-07, No Iterations 4
time step continuity errors : sum local = 3.5982275e-08, global = -1.1510641e-09, cumulative = -1.2637569e-08
smoothSolver:  Solving for omega, Initial residual = 0.12523535, Final residual = 0.0084349763, No Iterations 3
smoothSolver:  Solving for k, Initial residual = 0.039578844, Final residual = 0.0025213503, No Iterations 3
ExecutionTime = 18.029 s  ClockTime = 18 s

forces forces write:
    Sum of forces
        Total    : (0.068014437 3.6611427 -0.12886961)
        Pressure : (0.066257463 3.6586602 -0.12879788)
        Viscous  : (0.0017569742 0.0024824532 -7.1723526e-05)
    Sum of moments
        Total    : (-2.3284172 0.09660716 0.52419253)
        Pressure : (-2.3271849 0.095738082 0.52273908)
        Viscous  : (-0.0012322915 0.00086907732 0.0014534409)


Time = 9

smoothSolver:  Solving for Ux, Initial residual = 0.0051136301, Final residual = 0.00010756999, No Iterations 2
smoothSolver:  Solving for Uy, Initial residual = 0.0072048913, Final residual = 0.00018226342, No Iterations 2
smoothSolver:  Solving for Uz, Initial residual = 0.015457152, Final residual = 0.000372299, No Iterations 2
GAMG:  Solving for p, Initial residual = 0.15713617, Final residual = 0.00081577524, No Iterations 4
GAMG:  Solving for p, Initial residual = 0.013369961, Final residual = 0.00013071343, No Iterations 3
GAMG:  Solving for p, Initial residual = 0.0014866382, Final residual = 1.4808594e-05, No Iterations 4
GAMG:  Solving for p, Initial residual = 0.00029446187, Final residual = 2.8450339e-06, No Iterations 4
GAMG:  Solving for p, Initial residual = 6.8932987e-05, Final residual = 6.4240021e-07, No Iterations 4
GAMG:  Solving for p, Initial residual = 1.8637917e-05, Final residual = 1.4793269e-07, No Iterations 4
time step continuity errors : sum local = 3.6312398e-08, global = -1.0857664e-09, cumulative = -1.3723336e-08
smoothSolver:  Solving for omega, Initial residual = 0.10938383, Final residual = 0.007390684, No Iterations 3
smoothSolver:  Solving for k, Initial residual = 0.034831769, Final residual = 0.0022361615, No Iterations 3
ExecutionTime = 20.039 s  ClockTime = 20 s

forces forces write:
    Sum of forces
        Total    : (0.097811619 3.7877433 -0.12154342)
        Pressure : (0.09590686 3.7851698 -0.12149474)
        Viscous  : (0.0019047588 0.0025735848 -4.8684054e-05)
    Sum of moments
        Total    : (-2.4094255 0.11332647 0.53393512)
        Pressure : (-2.4081348 0.1123677 0.53240482)
        Viscous  : (-0.0012906943 0.00095877226 0.0015302995)


Time = 10

smoothSolver:  Solving for Ux, Initial residual = 0.0054380791, Final residual = 0.00012752751, No Iterations 2
smoothSolver:  Solving for Uy, Initial residual = 0.0095387273, Final residual = 0.00028762184, No Iterations 2
smoothSolver:  Solving for Uz, Initial residual = 0.015103458, Final residual = 0.00038216867, No Iterations 2
GAMG:  Solving for p, Initial residual = 0.13675529, Final residual = 0.00041191003, No Iterations 4
GAMG:  Solving for p, Initial residual = 0.00966221, Final residual = 7.3383691e-05, No Iterations 3
GAMG:  Solving for p, Initial residual = 0.0010879985, Final residual = 8.2621475e-06, No Iterations 4
GAMG:  Solving for p, Initial residual = 0.00021060343, Final residual = 1.7281667e-06, No Iterations 4
GAMG:  Solving for p, Initial residual = 5.0151264e-05, Final residual = 4.2761119e-07, No Iterations 4
GAMG:  Solving for p, Initial residual = 1.3635458e-05, Final residual = 1.0398398e-07, No Iterations 4
time step continuity errors : sum local = 2.5418561e-08, global = 3.6908243e-10, cumulative = -1.3354253e-08
smoothSolver:  Solving for omega, Initial residual = 0.09671579, Final residual = 0.0065516021, No Iterations 3
smoothSolver:  Solving for k, Initial residual = 0.031130409, Final residual = 0.0020085364, No Iterations 3
ExecutionTime = 21.979 s  ClockTime = 22 s

forces forces write:
    Sum of forces
        Total    : (0.083844997 3.7940131 -0.1253539)
        Pressure : (0.08185778 3.7913085 -0.12532991)
        Viscous  : (0.0019872168 0.0027045663 -2.3990364e-05)
    Sum of moments
        Total    : (-2.4120191 0.10621802 0.49537882)
        Pressure : (-2.4106459 0.10521034 0.49376693)
        Viscous  : (-0.0013732514 0.0010076806 0.0016118939)


Time = 11

smoothSolver:  Solving for Ux, Initial residual = 0.00495599, Final residual = 0.00012269317, No Iterations 2
smoothSolver:  Solving for Uy, Initial residual = 0.0087762729, Final residual = 0.00026098353, No Iterations 2
smoothSolver:  Solving for Uz, Initial residual = 0.014430069, Final residual = 0.0003769295, No Iterations 2
GAMG:  Solving for p, Initial residual = 0.13702908, Final residual = 0.00059697091, No Iterations 4
GAMG:  Solving for p, Initial residual = 0.010297213, Final residual = 9.0731897e-05, No Iterations 3
GAMG:  Solving for p, Initial residual = 0.0011340761, Final residual = 1.0975787e-05, No Iterations 4
GAMG:  Solving for p, Initial residual = 0.00020901413, Final residual = 1.8195555e-06, No Iterations 4
GAMG:  Solving for p, Initial residual = 4.6653989e-05, Final residual = 3.8420264e-07, No Iterations 4
GAMG:  Solving for p, Initial residual = 1.1967093e-05, Final residual = 8.9087189e-08, No Iterations 4
time step continuity errors : sum local = 2.2588047e-08, global = 6.070977e-10, cumulative = -1.2747156e-08
smoothSolver:  Solving for omega, Initial residual = 0.086379228, Final residual = 0.0058637861, No Iterations 3
smoothSolver:  Solving for k, Initial residual = 0.028160057, Final residual = 0.0018228877, No Iterations 3
ExecutionTime = 23.829 s  ClockTime = 24 s

forces forces write:
    Sum of forces
        Total    : (0.045443504 3.7193081 -0.13563491)
        Pressure : (0.043400965 3.7164809 -0.13564673)
        Viscous  : (0.002042538 0.0028272576 1.1821263e-05)
    Sum of moments
        Total    : (-2.3628106 0.085755637 0.44340414)
        Pressure : (-2.3613604 0.084718861 0.44171869)
        Viscous  : (-0.0014501963 0.0010367764 0.0016854535)


Time = 12

smoothSolver:  Solving for Ux, Initial residual = 0.0039955178, Final residual = 9.9044526e-05, No Iterations 2
smoothSolver:  Solving for Uy, Initial residual = 0.0057925838, Final residual = 0.00014431322, No Iterations 2
smoothSolver:  Solving for Uz, Initial residual = 0.01334468, Final residual = 0.00035346871, No Iterations 2
GAMG:  Solving for p, Initial residual = 0.12093992, Final residual = 0.00057502637, No Iterations 4
GAMG:  Solving for p, Initial residual = 0.0095489434, Final residual = 8.6859377e-05, No Iterations 3
GAMG:  Solving for p, Initial residual = 0.0010849094, Final residual = 1.0298582e-05, No Iterations 4
GAMG:  Solving for p, Initial residual = 0.00020140716, Final residual = 1.7959305e-06, No Iterations 4
GAMG:  Solving for p, Initial residual = 4.4338643e-05, Final residual = 3.7357986e-07, No Iterations 4
GAMG:  Solving for p, Initial residual = 1.1409503e-05, Final residual = 8.7894714e-08, No Iterations 4
time step continuity errors : sum local = 2.2496461e-08, global = 6.4338512e-10, cumulative = -1.210377e-08
smoothSolver:  Solving for omega, Initial residual = 0.077800955, Final residual = 0.0052906649, No Iterations 3
smoothSolver:  Solving for k, Initial residual = 0.025726164, Final residual = 0.001668896, No Iterations 3
ExecutionTime = 25.659 s  ClockTime = 26 s

forces forces write:
    Sum of forces
        Total    : (0.015055147 3.6422496 -0.1438775)
        Pressure : (0.012945399 3.6393337 -0.14393753)
        Viscous  : (0.0021097486 0.002915835 6.0027483e-05)
    Sum of moments
        Total    : (-2.3133415 0.069327681 0.41758812)
        Pressure : (-2.311837 0.068259269 0.41584233)
        Viscous  : (-0.0015045538 0.0010684121 0.0017457931)


Time = 13

smoothSolver:  Solving for Ux, Initial residual = 0.0040353402, Final residual = 0.00010245502, No Iterations 2
smoothSolver:  Solving for Uy, Initial residual = 0.0061735579, Final residual = 0.00016871076, No Iterations 2
smoothSolver:  Solving for Uz, Initial residual = 0.013381927, Final residual = 0.00036456422, No Iterations 2
GAMG:  Solving for p, Initial residual = 0.1020147, Final residual = 0.00033649368, No Iterations 4
GAMG:  Solving for p, Initial residual = 0.0075029915, Final residual = 5.8201204e-05, No Iterations 3
GAMG:  Solving for p, Initial residual = 0.00087421133, Final residual = 4.7776717e-06, No Iterations 4
GAMG:  Solving for p, Initial residual = 0.00016923679, Final residual = 1.6098546e-06, No Iterations 3
GAMG:  Solving for p, Initial residual = 3.9487798e-05, Final residual = 2.1967743e-07, No Iterations 4
GAMG:  Solving for p, Initial residual = 1.0397004e-05, Final residual = 9.3064003e-08, No Iterations 3
time step continuity errors : sum local = 2.3110497e-08, global = 1.2775592e-09, cumulative = -1.0826211e-08
smoothSolver:  Solving for omega, Initial residual = 0.070580962, Final residual = 0.0048065901, No Iterations 3
smoothSolver:  Solving for k, Initial residual = 0.023695029, Final residual = 0.0015390057, No Iterations 3
ExecutionTime = 27.219 s  ClockTime = 27 s

forces forces write:
    Sum of forces
        Total    : (0.011846607 3.6140982 -0.14476267)
        Pressure : (0.009635282 3.6111372 -0.14487879)
        Viscous  : (0.002211325 0.0029609326 0.00011612175)
    Sum of moments
        Total    : (-2.2968472 0.067138465 0.43117135)
        Pressure : (-2.2953165 0.066021134 0.42938044)
        Viscous  : (-0.0015307099 0.0011173309 0.0017909135)


Time = 14

smoothSolver:  Solving for Ux, Initial residual = 0.0040705752, Final residual = 0.00010538225, No Iterations 2
smoothSolver:  Solving for Uy, Initial residual = 0.0060074093, Final residual = 0.00017404115, No Iterations 2
smoothSolver:  Solving for Uz, Initial residual = 0.012846457, Final residual = 0.00035700129, No Iterations 2
GAMG:  Solving for p, Initial residual = 0.097953913, Final residual = 0.00034797042, No Iterations 4
GAMG:  Solving for p, Initial residual = 0.006935913, Final residual = 5.9867145e-05, No Iterations 3
GAMG:  Solving for p, Initial residual = 0.0007724871, Final residual = 7.418561e-06, No Iterations 4
GAMG:  Solving for p, Initial residual = 0.00014750817, Final residual = 1.2545346e-06, No Iterations 4
GAMG:  Solving for p, Initial residual = 3.3978231e-05, Final residual = 2.8347164e-07, No Iterations 4
GAMG:  Solving for p, Initial residual = 9.0794126e-06, Final residual = 6.6827343e-08, No Iterations 4
time step continuity errors : sum local = 1.6042594e-08, global = -4.3312646e-10, cumulative = -1.1259338e-08
smoothSolver:  Solving for omega, Initial residual = 0.06442761, Final residual = 0.0043928131, No Iterations 3
smoothSolver:  Solving for k, Initial residual = 0.021976314, Final residual = 0.001428161, No Iterations 3
ExecutionTime = 28.859 s  ClockTime = 29 s

forces forces write:
    Sum of forces
        Total    : (0.031335826 3.6361355 -0.13924561)
        Pressure : (0.029000291 3.6331728 -0.13941597)
        Viscous  : (0.0023355347 0.0029626437 0.0001703603)
    Sum of moments
        Total    : (-2.3132938 0.076845257 0.46644999)
        Pressure : (-2.3117668 0.075664309 0.46462989)
        Viscous  : (-0.0015270134 0.0011809476 0.0018201034)


Time = 15

smoothSolver:  Solving for Ux, Initial residual = 0.0036075072, Final residual = 9.2877586e-05, No Iterations 2
smoothSolver:  Solving for Uy, Initial residual = 0.004484604, Final residual = 0.00011995942, No Iterations 2
smoothSolver:  Solving for Uz, Initial residual = 0.011545233, Final residual = 0.00032362804, No Iterations 2
GAMG:  Solving for p, Initial residual = 0.091368719, Final residual = 0.00039763964, No Iterations 4
GAMG:  Solving for p, Initial residual = 0.007157273, Final residual = 6.5155076e-05, No Iterations 3
GAMG:  Solving for p, Initial residual = 0.00079890238, Final residual = 4.2185403e-06, No Iterations 5
GAMG:  Solving for p, Initial residual = 0.00015268746, Final residual = 9.6852554e-07, No Iterations 4
GAMG:  Solving for p, Initial residual = 3.5366385e-05, Final residual = 2.5479905e-07, No Iterations 4
GAMG:  Solving for p, Initial residual = 9.676672e-06, Final residual = 6.3849496e-08, No Iterations 4
time step continuity errors : sum local = 1.5038834e-08, global = -5.3593602e-10, cumulative = -1.1795274e-08
smoothSolver:  Solving for omega, Initial residual = 0.05912617, Final residual = 0.0040354524, No Iterations 3
smoothSolver:  Solving for k, Initial residual = 0.020503216, Final residual = 0.0013324448, No Iterations 3
ExecutionTime = 30.709 s  ClockTime = 31 s

forces forces write:
    Sum of forces
        Total    : (0.054975954 3.6775096 -0.13212227)
        Pressure : (0.052508134 3.6745813 -0.13233844)
        Viscous  : (0.0024678196 0.0029283432 0.00021617148)
    Sum of moments
        Total    : (-2.3414058 0.088782232 0.49432314)
        Pressure : (-2.3399105 0.087522791 0.49248693)
        Viscous  : (-0.0014952666 0.001259441 0.001836202)


Time = 16

smoothSolver:  Solving for Ux, Initial residual = 0.0032977916, Final residual = 8.4792319e-05, No Iterations 2
smoothSolver:  Solving for Uy, Initial residual = 0.0042939169, Final residual = 0.00011934171, No Iterations 2
smoothSolver:  Solving for Uz, Initial residual = 0.01081509, Final residual = 0.00030909838, No Iterations 2
GAMG:  Solving for p, Initial residual = 0.081085637, Final residual = 0.0002795917, No Iterations 4
GAMG:  Solving for p, Initial residual = 0.0062783463, Final residual = 4.7655213e-05, No Iterations 3
GAMG:  Solving for p, Initial residual = 0.00073029933, Final residual = 5.1854567e-06, No Iterations 4
GAMG:  Solving for p, Initial residual = 0.00014831355, Final residual = 1.0667721e-06, No Iterations 4
GAMG:  Solving for p, Initial residual = 3.4490483e-05, Final residual = 2.5625639e-07, No Iterations 4
GAMG:  Solving for p, Initial residual = 9.4158743e-06, Final residual = 6.5422299e-08, No Iterations 4
time step continuity errors : sum local = 1.5334082e-08, global = -5.8619358e-10, cumulative = -1.2381467e-08
smoothSolver:  Solving for omega, Initial residual = 0.05451497, Final residual = 0.0037239549, No Iterations 3
smoothSolver:  Solving for k, Initial residual = 0.019228102, Final residual = 0.0012490032, No Iterations 3
ExecutionTime = 32.478 s  ClockTime = 33 s

forces forces write:
    Sum of forces
        Total    : (0.066581045 3.7068981 -0.12811278)
        Pressure : (0.063987014 3.7040277 -0.12836427)
        Viscous  : (0.0025940316 0.0028704038 0.0002514918)
    Sum of moments
        Total    : (-2.3603082 0.094540336 0.49754078)
        Pressure : (-2.3588656 0.093195371 0.49569529)
        Viscous  : (-0.0014425315 0.0013449653 0.0018454916)


Time = 17

smoothSolver:  Solving for Ux, Initial residual = 0.003183921, Final residual = 8.1715924e-05, No Iterations 2
smoothSolver:  Solving for Uy, Initial residual = 0.004280432, Final residual = 0.00012537358, No Iterations 2
smoothSolver:  Solving for Uz, Initial residual = 0.010523743, Final residual = 0.00030907838, No Iterations 2
GAMG:  Solving for p, Initial residual = 0.075563224, Final residual = 0.0007212185, No Iterations 3
GAMG:  Solving for p, Initial residual = 0.0058588416, Final residual = 5.6795277e-05, No Iterations 3
GAMG:  Solving for p, Initial residual = 0.00067594807, Final residual = 4.8126135e-06, No Iterations 4
GAMG:  Solving for p, Initial residual = 0.00013217016, Final residual = 9.7668683e-07, No Iterations 4
GAMG:  Solving for p, Initial residual = 3.0637913e-05, Final residual = 2.3154821e-07, No Iterations 4
GAMG:  Solving for p, Initial residual = 8.3328717e-06, Final residual = 5.8878587e-08, No Iterations 4
time step continuity errors : sum local = 1.3936176e-08, global = 4.6319961e-10, cumulative = -1.1918268e-08
smoothSolver:  Solving for omega, Initial residual = 0.050471968, Final residual = 0.0034503402, No Iterations 3
smoothSolver:  Solving for k, Initial residual = 0.018114403, Final residual = 0.0011757351, No Iterations 3
ExecutionTime = 34.298 s  ClockTime = 34 s

forces forces write:
    Sum of forces
        Total    : (0.062566336 3.7120662 -0.12847665)
        Pressure : (0.059841291 3.7092709 -0.1287603)
        Viscous  : (0.0027250457 0.0027952705 0.00028365304)
    Sum of moments
        Total    : (-2.3626167 0.092306184 0.4801093)
        Pressure : (-2.361243 0.09086088 0.47825282)
        Viscous  : (-0.0013736612 0.0014453043 0.0018564776)


Time = 18

smoothSolver:  Solving for Ux, Initial residual = 0.0029967584, Final residual = 7.7381511e-05, No Iterations 2
smoothSolver:  Solving for Uy, Initial residual = 0.0034483756, Final residual = 9.6758196e-05, No Iterations 2
smoothSolver:  Solving for Uz, Initial residual = 0.010235212, Final residual = 0.00030657504, No Iterations 2
GAMG:  Solving for p, Initial residual = 0.071515656, Final residual = 0.00070273931, No Iterations 3
GAMG:  Solving for p, Initial residual = 0.005436579, Final residual = 2.8354285e-05, No Iterations 4
GAMG:  Solving for p, Initial residual = 0.00059235964, Final residual = 3.7653161e-06, No Iterations 4
GAMG:  Solving for p, Initial residual = 0.00011478816, Final residual = 7.3031008e-07, No Iterations 4
GAMG:  Solving for p, Initial residual = 2.6862986e-05, Final residual = 1.676564e-07, No Iterations 4
GAMG:  Solving for p, Initial residual = 7.2217999e-06, Final residual = 4.1546723e-08, No Iterations 4
time step continuity errors : sum local = 9.9175919e-09, global = 2.7543794e-10, cumulative = -1.164283e-08
smoothSolver:  Solving for omega, Initial residual = 0.046904017, Final residual = 0.0032084391, No Iterations 3
smoothSolver:  Solving for k, Initial residual = 0.017134242, Final residual = 0.0011109427, No Iterations 3
ExecutionTime = 36.088 s  ClockTime = 36 s

forces forces write:
    Sum of forces
        Total    : (0.050774757 3.6998884 -0.13116594)
        Pressure : (0.047893318 3.6971857 -0.13148815)
        Viscous  : (0.0028814396 0.002702707 0.00032220491)
    Sum of moments
        Total    : (-2.3539154 0.08617306 0.45933947)
        Pressure : (-2.3526248 0.084604229 0.45746286)
        Viscous  : (-0.0012905967 0.0015688308 0.0018766146)


Time = 19

smoothSolver:  Solving for Ux, Initial residual = 0.0028567, Final residual = 7.5075962e-05, No Iterations 2
smoothSolver:  Solving for Uy, Initial residual = 0.0029299352, Final residual = 7.7331336e-05, No Iterations 2
smoothSolver:  Solving for Uz, Initial residual = 0.0099813644, Final residual = 0.00030083294, No Iterations 2
GAMG:  Solving for p, Initial residual = 0.06387288, Final residual = 0.00020064181, No Iterations 4
GAMG:  Solving for p, Initial residual = 0.0044957973, Final residual = 2.8383765e-05, No Iterations 3
GAMG:  Solving for p, Initial residual = 0.00051831421, Final residual = 2.7064719e-06, No Iterations 4
GAMG:  Solving for p, Initial residual = 0.00010351856, Final residual = 9.8124095e-07, No Iterations 3
GAMG:  Solving for p, Initial residual = 2.4611999e-05, Final residual = 1.8975036e-07, No Iterations 4
GAMG:  Solving for p, Initial residual = 6.6307254e-06, Final residual = 4.1171975e-08, No Iterations 4
time step continuity errors : sum local = 9.7598891e-09, global = 2.8354062e-10, cumulative = -1.1359289e-08
smoothSolver:  Solving for omega, Initial residual = 0.043735804, Final residual = 0.0029932522, No Iterations 3
smoothSolver:  Solving for k, Initial residual = 0.016265858, Final residual = 0.0010533134, No Iterations 3
ExecutionTime = 37.938 s  ClockTime = 38 s

forces forces write:
    Sum of forces
        Total    : (0.041804656 3.685301 -0.13321634)
        Pressure : (0.038726401 3.6827097 -0.13359)
        Viscous  : (0.0030782549 0.002591242 0.0003736595)
    Sum of moments
        Total    : (-2.3446458 0.081560988 0.45050579)
        Pressure : (-2.3434507 0.079843171 0.44859635)
        Viscous  : (-0.001195162 0.0017178178 0.0019094409)


Time = 20

smoothSolver:  Solving for Ux, Initial residual = 0.0027812309, Final residual = 7.357636e-05, No Iterations 2
smoothSolver:  Solving for Uy, Initial residual = 0.0030002381, Final residual = 8.5653684e-05, No Iterations 2
smoothSolver:  Solving for Uz, Initial residual = 0.0096697156, Final residual = 0.00029140901, No Iterations 2
GAMG:  Solving for p, Initial residual = 0.058270602, Final residual = 0.00054572097, No Iterations 3
GAMG:  Solving for p, Initial residual = 0.0042675959, Final residual = 1.8564042e-05, No Iterations 4
GAMG:  Solving for p, Initial residual = 0.0004814465, Final residual = 3.1371399e-06, No Iterations 4
GAMG:  Solving for p, Initial residual = 0.00010054198, Final residual = 6.1334509e-07, No Iterations 4
GAMG:  Solving for p, Initial residual = 2.3559967e-05, Final residual = 1.5028041e-07, No Iterations 4
GAMG:  Solving for p, Initial residual = 6.5357747e-06, Final residual = 3.6055102e-08, No Iterations 4
time step continuity errors : sum local = 8.4175346e-09, global = -2.5029184e-10, cumulative = -1.1609581e-08
smoothSolver:  Solving for omega, Initial residual = 0.040905548, Final residual = 0.0028006797, No Iterations 3
smoothSolver:  Solving for k, Initial residual = 0.015490764, Final residual = 0.0010017465, No Iterations 3
ExecutionTime = 39.678 s  ClockTime = 40 s

forces forces write:
    Sum of forces
        Total    : (0.041139833 3.6792047 -0.13293449)
        Pressure : (0.037801109 3.6767541 -0.13338517)
        Viscous  : (0.0033387243 0.0024506421 0.00045068379)
    Sum of moments
        Total    : (-2.3418261 0.081157674 0.45670134)
        Pressure : (-2.3407457 0.079249285 0.45474379)
        Viscous  : (-0.0010804038 0.0019083887 0.0019575463)


Time = 21

smoothSolver:  Solving for Ux, Initial residual = 0.002665921, Final residual = 7.1543857e-05, No Iterations 2
smoothSolver:  Solving for Uy, Initial residual = 0.0028019927, Final residual = 8.1551333e-05, No Iterations 2
smoothSolver:  Solving for Uz, Initial residual = 0.0091756597, Final residual = 0.00027583288, No Iterations 2
GAMG:  Solving for p, Initial residual = 0.05501277, Final residual = 0.00050209768, No Iterations 3
GAMG:  Solving for p, Initial residual = 0.0039909346, Final residual = 2.1790827e-05, No Iterations 4
GAMG:  Solving for p, Initial residual = 0.00045107199, Final residual = 3.4251324e-06, No Iterations 4
GAMG:  Solving for p, Initial residual = 9.2178549e-05, Final residual = 6.580334e-07, No Iterations 4
GAMG:  Solving for p, Initial residual = 2.2054435e-05, Final residual = 1.5141831e-07, No Iterations 4
GAMG:  Solving for p, Initial residual = 6.1504619e-06, Final residual = 3.7316188e-08, No Iterations 4
time step continuity errors : sum local = 8.6048349e-09, global = -2.3072693e-10, cumulative = -1.1840308e-08
smoothSolver:  Solving for omega, Initial residual = 0.03836394, Final residual = 0.0026274716, No Iterations 3
smoothSolver:  Solving for k, Initial residual = 0.014795644, Final residual = 0.00095537464, No Iterations 3
ExecutionTime = 41.258 s  ClockTime = 41 s

forces forces write:
    Sum of forces
        Total    : (0.047217441 3.6835311 -0.13056748)
        Pressure : (0.043556519 3.6812518 -0.13112353)
        Viscous  : (0.0036609224 0.0022793457 0.00055604507)
    Sum of moments
        Total    : (-2.3459889 0.084073044 0.47004361)
        Pressure : (-2.345043 0.081936448 0.46802454)
        Viscous  : (-0.00094595858 0.0021365962 0.0020190705)


Time = 22

smoothSolver:  Solving for Ux, Initial residual = 0.0025456569, Final residual = 6.9363204e-05, No Iterations 2
smoothSolver:  Solving for Uy, Initial residual = 0.0025250074, Final residual = 7.0501994e-05, No Iterations 2
smoothSolver:  Solving for Uz, Initial residual = 0.0088191456, Final residual = 0.00026384023, No Iterations 2
GAMG:  Solving for p, Initial residual = 0.050720068, Final residual = 0.00044526701, No Iterations 3
GAMG:  Solving for p, Initial residual = 0.0036533244, Final residual = 1.7898469e-05, No Iterations 4
GAMG:  Solving for p, Initial residual = 0.00041107137, Final residual = 2.8056031e-06, No Iterations 4
GAMG:  Solving for p, Initial residual = 8.286277e-05, Final residual = 5.5902996e-07, No Iterations 4
GAMG:  Solving for p, Initial residual = 1.9567768e-05, Final residual = 1.2779147e-07, No Iterations 4
GAMG:  Solving for p, Initial residual = 5.3925441e-06, Final residual = 3.1671062e-08, No Iterations 4
time step continuity errors : sum local = 7.2523893e-09, global = -1.9273543e-10, cumulative = -1.2033043e-08
smoothSolver:  Solving for omega, Initial residual = 0.036070005, Final residual = 0.0024709451, No Iterations 3
smoothSolver:  Solving for k, Initial residual = 0.014169493, Final residual = 0.00091348281, No Iterations 3
ExecutionTime = 42.888 s  ClockTime = 43 s

forces forces write:
    Sum of forces
        Total    : (0.054699414 3.6932013 -0.12756396)
        Pressure : (0.050681237 3.6911181 -0.1282451)
        Viscous  : (0.0040181769 0.0020832083 0.00068114562)
    Sum of moments
        Total    : (-2.3529505 0.087554021 0.48004809)
        Pressure : (-2.3521528 0.085176666 0.47795809)
        Viscous  : (-0.00079778168 0.0023773553 0.002089999)


Time = 23

smoothSolver:  Solving for Ux, Initial residual = 0.0024783102, Final residual = 6.786949e-05, No Iterations 2
smoothSolver:  Solving for Uy, Initial residual = 0.0024010867, Final residual = 6.5892319e-05, No Iterations 2
smoothSolver:  Solving for Uz, Initial residual = 0.0086751511, Final residual = 0.00025889516, No Iterations 2
GAMG:  Solving for p, Initial residual = 0.046378582, Final residual = 0.00039725743, No Iterations 3
GAMG:  Solving for p, Initial residual = 0.0033913243, Final residual = 3.3074199e-05, No Iterations 3
GAMG:  Solving for p, Initial residual = 0.0003998928, Final residual = 2.5398222e-06, No Iterations 4
GAMG:  Solving for p, Initial residual = 8.0987161e-05, Final residual = 4.5341107e-07, No Iterations 4
GAMG:  Solving for p, Initial residual = 1.8775051e-05, Final residual = 1.0953654e-07, No Iterations 4
GAMG:  Solving for p, Initial residual = 5.1492966e-06, Final residual = 2.7355326e-08, No Iterations 4
time step continuity errors : sum local = 6.2529222e-09, global = -2.0316107e-10, cumulative = -1.2236204e-08
smoothSolver:  Solving for omega, Initial residual = 0.033989763, Final residual = 0.002328846, No Iterations 3
smoothSolver:  Solving for k, Initial residual = 0.013602864, Final residual = 0.00087547953, No Iterations 3
ExecutionTime = 44.688 s  ClockTime = 45 s

forces forces write:
    Sum of forces
        Total    : (0.059194212 3.7014295 -0.12534564)
        Pressure : (0.05480988 3.6995582 -0.12615753)
        Viscous  : (0.0043843317 0.0018713882 0.0008118883)
    Sum of moments
        Total    : (-2.3580835 0.089466537 0.48147134)
        Pressure : (-2.3574373 0.086861013 0.47930544)
        Viscous  : (-0.00064618324 0.0026055241 0.0021659047)


Time = 24

smoothSolver:  Solving for Ux, Initial residual = 0.0024280401, Final residual = 6.6791876e-05, No Iterations 2
smoothSolver:  Solving for Uy, Initial residual = 0.0021575406, Final residual = 5.9613281e-05, No Iterations 2
smoothSolver:  Solving for Uz, Initial residual = 0.0085275078, Final residual = 0.00025501039, No Iterations 2
GAMG:  Solving for p, Initial residual = 0.043507557, Final residual = 0.00036306302, No Iterations 3
GAMG:  Solving for p, Initial residual = 0.0031794017, Final residual = 2.827183e-05, No Iterations 3
GAMG:  Solving for p, Initial residual = 0.00037597735, Final residual = 1.8935668e-06, No Iterations 4
GAMG:  Solving for p, Initial residual = 7.7505765e-05, Final residual = 6.8223763e-07, No Iterations 3
GAMG:  Solving for p, Initial residual = 1.8065321e-05, Final residual = 1.2099205e-07, No Iterations 4
GAMG:  Solving for p, Initial residual = 4.9404589e-06, Final residual = 2.7470001e-08, No Iterations 4
time step continuity errors : sum local = 6.2834375e-09, global = 2.7303095e-10, cumulative = -1.1963173e-08
smoothSolver:  Solving for omega, Initial residual = 0.032096852, Final residual = 0.0021994042, No Iterations 3
smoothSolver:  Solving for k, Initial residual = 0.0130883, Final residual = 0.00084087864, No Iterations 3
ExecutionTime = 46.467 s  ClockTime = 47 s

forces forces write:
    Sum of forces
        Total    : (0.059824156 3.7043533 -0.1243233)
        Pressure : (0.055051228 3.7027211 -0.12527067)
        Viscous  : (0.0047729277 0.0016322442 0.00094737071)
    Sum of moments
        Total    : (-2.3592917 0.089512006 0.47641636)
        Pressure : (-2.3588071 0.086679106 0.47416797)
        Viscous  : (-0.00048453252 0.0028329002 0.0022483915)


Time = 25

smoothSolver:  Solving for Ux, Initial residual = 0.0023689378, Final residual = 6.5937604e-05, No Iterations 2
smoothSolver:  Solving for Uy, Initial residual = 0.0018952145, Final residual = 5.1339381e-05, No Iterations 2
smoothSolver:  Solving for Uz, Initial residual = 0.0082719297, Final residual = 0.00024711195, No Iterations 2
GAMG:  Solving for p, Initial residual = 0.040523434, Final residual = 0.00031621718, No Iterations 3
GAMG:  Solving for p, Initial residual = 0.0029377583, Final residual = 2.2519311e-05, No Iterations 3
GAMG:  Solving for p, Initial residual = 0.00034922326, Final residual = 1.449164e-06, No Iterations 4
GAMG:  Solving for p, Initial residual = 7.2794805e-05, Final residual = 5.5778454e-07, No Iterations 3
GAMG:  Solving for p, Initial residual = 1.7261871e-05, Final residual = 1.122611e-07, No Iterations 4
GAMG:  Solving for p, Initial residual = 4.8229707e-06, Final residual = 2.6962564e-08, No Iterations 4
time step continuity errors : sum local = 6.1579042e-09, global = 2.2370925e-10, cumulative = -1.1739464e-08
smoothSolver:  Solving for omega, Initial residual = 0.030369878, Final residual = 0.0020812134, No Iterations 3
smoothSolver:  Solving for k, Initial residual = 0.012619551, Final residual = 0.00080926524, No Iterations 3
ExecutionTime = 48.267 s  ClockTime = 48 s

forces forces write:
    Sum of forces
        Total    : (0.058555573 3.7024512 -0.12404603)
        Pressure : (0.053361462 3.7010918 -0.12512791)
        Viscous  : (0.0051941113 0.0013594431 0.0010818778)
    Sum of moments
        Total    : (-2.357525 0.088757985 0.4707731)
        Pressure : (-2.3572136 0.085694127 0.46843621)
        Viscous  : (-0.0003114009 0.0030638585 0.0023368936)


Time = 26

smoothSolver:  Solving for Ux, Initial residual = 0.0023047756, Final residual = 6.5066853e-05, No Iterations 2
smoothSolver:  Solving for Uy, Initial residual = 0.0018359966, Final residual = 4.9396617e-05, No Iterations 2
smoothSolver:  Solving for Uz, Initial residual = 0.0079735951, Final residual = 0.00023719685, No Iterations 2
GAMG:  Solving for p, Initial residual = 0.037376899, Final residual = 0.00028265513, No Iterations 3
GAMG:  Solving for p, Initial residual = 0.0026529036, Final residual = 2.2055361e-05, No Iterations 3
GAMG:  Solving for p, Initial residual = 0.00032456431, Final residual = 1.9728628e-06, No Iterations 4
GAMG:  Solving for p, Initial residual = 6.8044087e-05, Final residual = 3.6786213e-07, No Iterations 4
GAMG:  Solving for p, Initial residual = 1.6164277e-05, Final residual = 9.0836866e-08, No Iterations 4
GAMG:  Solving for p, Initial residual = 4.4956372e-06, Final residual = 4.4050229e-08, No Iterations 3
time step continuity errors : sum local = 1.0009472e-08, global = 2.2005767e-10, cumulative = -1.1519406e-08
smoothSolver:  Solving for omega, Initial residual = 0.028789117, Final residual = 0.0019729342, No Iterations 3
smoothSolver:  Solving for k, Initial residual = 0.012191244, Final residual = 0.0007803009, No Iterations 3
ExecutionTime = 50.047 s  ClockTime = 50 s

forces forces write:
    Sum of forces
        Total    : (0.057931365 3.6988908 -0.1236809)
        Pressure : (0.052277824 3.6978487 -0.1248958)
        Viscous  : (0.0056535409 0.0010420646 0.0012148917)
    Sum of moments
        Total    : (-2.3551899 0.088407587 0.46912043)
        Pressure : (-2.355068 0.085109646 0.46668916)
        Viscous  : (-0.00012191922 0.0032979411 0.0024312704)


Time = 27

smoothSolver:  Solving for Ux, Initial residual = 0.0022419622, Final residual = 6.3413144e-05, No Iterations 2
smoothSolver:  Solving for Uy, Initial residual = 0.0018225161, Final residual = 5.0085893e-05, No Iterations 2
smoothSolver:  Solving for Uz, Initial residual = 0.0077235563, Final residual = 0.0002290441, No Iterations 2
GAMG:  Solving for p, Initial residual = 0.034842995, Final residual = 0.00026074696, No Iterations 3
GAMG:  Solving for p, Initial residual = 0.0024421784, Final residual = 2.4227245e-05, No Iterations 3
GAMG:  Solving for p, Initial residual = 0.00031428335, Final residual = 3.0610808e-06, No Iterations 4
GAMG:  Solving for p, Initial residual = 6.6790859e-05, Final residual = 5.5274841e-07, No Iterations 4
GAMG:  Solving for p, Initial residual = 1.6208395e-05, Final residual = 1.2605575e-07, No Iterations 4
GAMG:  Solving for p, Initial residual = 4.5111427e-06, Final residual = 3.0226957e-08, No Iterations 4
time step continuity errors : sum local = 6.8252087e-09, global = -1.945788e-10, cumulative = -1.1713985e-08
smoothSolver:  Solving for omega, Initial residual = 0.027338145, Final residual = 0.0018734285, No Iterations 3
smoothSolver:  Solving for k, Initial residual = 0.011798979, Final residual = 0.00075369735, No Iterations 3
ExecutionTime = 51.837 s  ClockTime = 52 s

forces forces write:
    Sum of forces
        Total    : (0.059171246 3.6968789 -0.1227527)
        Pressure : (0.053059188 3.6961877 -0.12408648)
        Viscous  : (0.0061120588 0.00069124969 0.0013337763)
    Sum of moments
        Total    : (-2.3542776 0.088920941 0.47203425)
        Pressure : (-2.3543524 0.085417787 0.46950744)
        Viscous  : (7.4844544e-05 0.0035031542 0.0025268102)


Time = 28

smoothSolver:  Solving for Ux, Initial residual = 0.0021900242, Final residual = 6.1722629e-05, No Iterations 2
smoothSolver:  Solving for Uy, Initial residual = 0.0017409632, Final residual = 4.758566e-05, No Iterations 2
smoothSolver:  Solving for Uz, Initial residual = 0.0075499973, Final residual = 0.00022527059, No Iterations 2
GAMG:  Solving for p, Initial residual = 0.032843086, Final residual = 0.00023719634, No Iterations 3
GAMG:  Solving for p, Initial residual = 0.0023233456, Final residual = 2.2919834e-05, No Iterations 3
GAMG:  Solving for p, Initial residual = 0.00030618495, Final residual = 2.8152959e-06, No Iterations 4
GAMG:  Solving for p, Initial residual = 6.5455083e-05, Final residual = 5.2940399e-07, No Iterations 4
GAMG:  Solving for p, Initial residual = 1.5818478e-05, Final residual = 1.221726e-07, No Iterations 4
GAMG:  Solving for p, Initial residual = 4.3947337e-06, Final residual = 2.985153e-08, No Iterations 4
time step continuity errors : sum local = 6.7095058e-09, global = -1.9723795e-10, cumulative = -1.1911223e-08
smoothSolver:  Solving for omega, Initial residual = 0.026002461, Final residual = 0.0017817365, No Iterations 3
smoothSolver:  Solving for k, Initial residual = 0.011438603, Final residual = 0.00072920164, No Iterations 3
ExecutionTime = 53.527 s  ClockTime = 54 s

forces forces write:
    Sum of forces
        Total    : (0.061892784 3.6977028 -0.12126958)
        Pressure : (0.05533195 3.6973918 -0.12271151)
        Viscous  : (0.006560834 0.00031107523 0.0014419227)
    Sum of moments
        Total    : (-2.3552748 0.089995715 0.4769033)
        Pressure : (-2.3555519 0.086318031 0.47428096)
        Viscous  : (0.00027710433 0.003677684 0.0026223405)


Time = 29

smoothSolver:  Solving for Ux, Initial residual = 0.0021575864, Final residual = 6.0696107e-05, No Iterations 2
smoothSolver:  Solving for Uy, Initial residual = 0.0016165709, Final residual = 4.3270732e-05, No Iterations 2
smoothSolver:  Solving for Uz, Initial residual = 0.0074201076, Final residual = 0.00022335395, No Iterations 2
GAMG:  Solving for p, Initial residual = 0.030823056, Final residual = 0.00020899459, No Iterations 3
GAMG:  Solving for p, Initial residual = 0.0021777106, Final residual = 1.8722821e-05, No Iterations 3
GAMG:  Solving for p, Initial residual = 0.00028349707, Final residual = 2.118995e-06, No Iterations 4
GAMG:  Solving for p, Initial residual = 6.1171638e-05, Final residual = 4.2964755e-07, No Iterations 4
GAMG:  Solving for p, Initial residual = 1.4841076e-05, Final residual = 1.038591e-07, No Iterations 4
GAMG:  Solving for p, Initial residual = 4.1467628e-06, Final residual = 2.6984116e-08, No Iterations 4
time step continuity errors : sum local = 6.0482708e-09, global = -2.0024615e-10, cumulative = -1.2111469e-08
smoothSolver:  Solving for omega, Initial residual = 0.024768715, Final residual = 0.0016969879, No Iterations 3
smoothSolver:  Solving for k, Initial residual = 0.011106898, Final residual = 0.00070662299, No Iterations 3
ExecutionTime = 55.087 s  ClockTime = 55 s

forces forces write:
    Sum of forces
        Total    : (0.064929379 3.7002745 -0.11962891)
        Pressure : (0.057910632 3.7003863 -0.12117971)
        Viscous  : (0.0070187468 -0.00011181078 0.0015508022)
    Sum of moments
        Total    : (-2.3572082 0.091063112 0.48053348)
        Pressure : (-2.3577035 0.087222372 0.47781131)
        Viscous  : (0.00049529626 0.0038407399 0.0027221745)


Time = 30

smoothSolver:  Solving for Ux, Initial residual = 0.0021377468, Final residual = 6.0283583e-05, No Iterations 2
smoothSolver:  Solving for Uy, Initial residual = 0.0014984401, Final residual = 3.9094025e-05, No Iterations 2
smoothSolver:  Solving for Uz, Initial residual = 0.0072690037, Final residual = 0.00022105996, No Iterations 2
GAMG:  Solving for p, Initial residual = 0.028899789, Final residual = 0.00019189753, No Iterations 3
GAMG:  Solving for p, Initial residual = 0.0020198612, Final residual = 1.707129e-05, No Iterations 3
GAMG:  Solving for p, Initial residual = 0.00026210228, Final residual = 1.3951922e-06, No Iterations 4
GAMG:  Solving for p, Initial residual = 5.6229193e-05, Final residual = 5.2075481e-07, No Iterations 3
GAMG:  Solving for p, Initial residual = 1.3771834e-05, Final residual = 9.8840855e-08, No Iterations 4
GAMG:  Solving for p, Initial residual = 3.8525089e-06, Final residual = 2.4870337e-08, No Iterations 4
time step continuity errors : sum local = 5.5629285e-09, global = -1.4928473e-10, cumulative = -1.2260754e-08
smoothSolver:  Solving for omega, Initial residual = 0.023625952, Final residual = 0.0016184537, No Iterations 3
smoothSolver:  Solving for k, Initial residual = 0.010800799, Final residual = 0.00068579353, No Iterations 3
ExecutionTime = 56.747 s  ClockTime = 57 s

forces forces write:
    Sum of forces
        Total    : (0.067307973 3.7024809 -0.11822787)
        Pressure : (0.059867206 3.7030301 -0.11987029)
        Viscous  : (0.0074407672 -0.0005492172 0.0016424263)
    Sum of moments
        Total    : (-2.3587067 0.091718746 0.48144757)
        Pressure : (-2.3594205 0.087755275 0.4786247)
        Viscous  : (0.00071379675 0.0039634707 0.0028228707)


Time = 31

smoothSolver:  Solving for Ux, Initial residual = 0.0021158365, Final residual = 6.0099652e-05, No Iterations 2
smoothSolver:  Solving for Uy, Initial residual = 0.0014093008, Final residual = 3.6796123e-05, No Iterations 2
smoothSolver:  Solving for Uz, Initial residual = 0.0070910534, Final residual = 0.00021851433, No Iterations 2
GAMG:  Solving for p, Initial residual = 0.027216268, Final residual = 0.00017345976, No Iterations 3
GAMG:  Solving for p, Initial residual = 0.0019261618, Final residual = 1.539751e-05, No Iterations 3
GAMG:  Solving for p, Initial residual = 0.00025303969, Final residual = 2.3713358e-06, No Iterations 3
GAMG:  Solving for p, Initial residual = 5.5825696e-05, Final residual = 5.3998922e-07, No Iterations 3
GAMG:  Solving for p, Initial residual = 1.351722e-05, Final residual = 6.5697956e-08, No Iterations 4
GAMG:  Solving for p, Initial residual = 3.7418926e-06, Final residual = 2.8895694e-08, No Iterations 3
time step continuity errors : sum local = 6.4451559e-09, global = 5.5907497e-10, cumulative = -1.1701679e-08
smoothSolver:  Solving for omega, Initial residual = 0.022564488, Final residual = 0.0015454574, No Iterations 3
smoothSolver:  Solving for k, Initial residual = 0.010517504, Final residual = 0.00066653465, No Iterations 3
ExecutionTime = 58.547 s  ClockTime = 59 s

forces forces write:
    Sum of forces
        Total    : (0.068809464 3.7026929 -0.11723895)
        Pressure : (0.061047542 3.7036564 -0.11893489)
        Viscous  : (0.0077619218 -0.00096358826 0.0016959418)
    Sum of moments
        Total    : (-2.3588609 0.091968624 0.48031495)
        Pressure : (-2.3597763 0.0879439 0.47739434)
        Viscous  : (0.00091537068 0.0040247241 0.0029206129)


Time = 32

smoothSolver:  Solving for Ux, Initial residual = 0.0020857398, Final residual = 5.9598684e-05, No Iterations 2
smoothSolver:  Solving for Uy, Initial residual = 0.0013804166, Final residual = 3.6117405e-05, No Iterations 2
smoothSolver:  Solving for Uz, Initial residual = 0.0069216457, Final residual = 0.00021660605, No Iterations 2
GAMG:  Solving for p, Initial residual = 0.025569919, Final residual = 0.00015750973, No Iterations 3
GAMG:  Solving for p, Initial residual = 0.0018279826, Final residual = 1.2592128e-05, No Iterations 3
GAMG:  Solving for p, Initial residual = 0.00024429777, Final residual = 1.9549323e-06, No Iterations 3
GAMG:  Solving for p, Initial residual = 5.4707891e-05, Final residual = 4.8546657e-07, No Iterations 3
GAMG:  Solving for p, Initial residual = 1.3336879e-05, Final residual = 8.270923e-08, No Iterations 4
GAMG:  Solving for p, Initial residual = 3.7341794e-06, Final residual = 2.0880769e-08, No Iterations 4
time step continuity errors : sum local = 4.6382599e-09, global = 1.2091131e-10, cumulative = -1.1580768e-08
smoothSolver:  Solving for omega, Initial residual = 0.021575776, Final residual = 0.0014774287, No Iterations 3
smoothSolver:  Solving for k, Initial residual = 0.01025499, Final residual = 0.00064870327, No Iterations 3
ExecutionTime = 60.347 s  ClockTime = 60 s

forces forces write:
    Sum of forces
        Total    : (0.069830247 3.7007933 -0.11656237)
        Pressure : (0.061886132 3.7021378 -0.11825547)
        Viscous  : (0.0079441156 -0.0013445609 0.0016931044)
    Sum of moments
        Total    : (-2.3577336 0.092061876 0.47894806)
        Pressure : (-2.3588325 0.088049421 0.47593196)
        Viscous  : (0.0010988741 0.0040124557 0.0030160922)


Time = 33

smoothSolver:  Solving for Ux, Initial residual = 0.0020540202, Final residual = 5.8588238e-05, No Iterations 2
smoothSolver:  Solving for Uy, Initial residual = 0.0013901322, Final residual = 3.6274034e-05, No Iterations 2
smoothSolver:  Solving for Uz, Initial residual = 0.0067709444, Final residual = 0.00021519527, No Iterations 2
GAMG:  Solving for p, Initial residual = 0.024125752, Final residual = 0.00015081528, No Iterations 3
GAMG:  Solving for p, Initial residual = 0.0016997963, Final residual = 1.2450169e-05, No Iterations 3
GAMG:  Solving for p, Initial residual = 0.00022921473, Final residual = 1.663092e-06, No Iterations 4
GAMG:  Solving for p, Initial residual = 5.1570984e-05, Final residual = 3.4348474e-07, No Iterations 4
GAMG:  Solving for p, Initial residual = 1.2465577e-05, Final residual = 7.8625169e-08, No Iterations 4
GAMG:  Solving for p, Initial residual = 3.5013056e-06, Final residual = 2.0276757e-08, No Iterations 4
time step continuity errors : sum local = 4.4809895e-09, global = -1.2949709e-10, cumulative = -1.1710265e-08
smoothSolver:  Solving for omega, Initial residual = 0.020651424, Final residual = 0.0014138156, No Iterations 3
smoothSolver:  Solving for k, Initial residual = 0.010010757, Final residual = 0.00063214038, No Iterations 3
ExecutionTime = 62.246 s  ClockTime = 62 s

forces forces write:
    Sum of forces
        Total    : (0.070850576 3.6980067 -0.11601241)
        Pressure : (0.062879768 3.6996722 -0.11763789)
        Viscous  : (0.0079708081 -0.001665474 0.0016254789)
    Sum of moments
        Total    : (-2.3561565 0.092218326 0.47880636)
        Pressure : (-2.3574116 0.088293638 0.47569966)
        Viscous  : (0.0012551162 0.0039246878 0.0031067031)


Time = 34

smoothSolver:  Solving for Ux, Initial residual = 0.0020223035, Final residual = 5.7435213e-05, No Iterations 2
smoothSolver:  Solving for Uy, Initial residual = 0.0013696211, Final residual = 3.5823469e-05, No Iterations 2
smoothSolver:  Solving for Uz, Initial residual = 0.0066367357, Final residual = 0.00021387922, No Iterations 2
GAMG:  Solving for p, Initial residual = 0.022941055, Final residual = 0.00013233697, No Iterations 3
GAMG:  Solving for p, Initial residual = 0.0015927861, Final residual = 1.2683038e-05, No Iterations 3
GAMG:  Solving for p, Initial residual = 0.0002170664, Final residual = 1.6277027e-06, No Iterations 4
GAMG:  Solving for p, Initial residual = 4.8668455e-05, Final residual = 3.394635e-07, No Iterations 4
GAMG:  Solving for p, Initial residual = 1.1777332e-05, Final residual = 8.0118944e-08, No Iterations 4
GAMG:  Solving for p, Initial residual = 3.301338e-06, Final residual = 2.0963783e-08, No Iterations 4
time step continuity errors : sum local = 4.6094772e-09, global = -1.3891337e-10, cumulative = -1.1849178e-08
smoothSolver:  Solving for omega, Initial residual = 0.019785673, Final residual = 0.0013542453, No Iterations 3
smoothSolver:  Solving for k, Initial residual = 0.0097826011, Final residual = 0.00061671551, No Iterations 3
ExecutionTime = 64.176 s  ClockTime = 64 s

forces forces write:
    Sum of forces
        Total    : (0.072089178 3.6958428 -0.11543868)
        Pressure : (0.064208225 3.6977789 -0.11695188)
        Viscous  : (0.0078809534 -0.0019361687 0.001513205)
    Sum of moments
        Total    : (-2.3550418 0.092490953 0.48015637)
        Pressure : (-2.3564368 0.088698169 0.47696053)
        Viscous  : (0.0013950301 0.0037927847 0.0031958421)


Time = 35

smoothSolver:  Solving for Ux, Initial residual = 0.0020001851, Final residual = 5.6432368e-05, No Iterations 2
smoothSolver:  Solving for Uy, Initial residual = 0.0013031781, Final residual = 3.4400005e-05, No Iterations 2
smoothSolver:  Solving for Uz, Initial residual = 0.0065290628, Final residual = 0.00021262244, No Iterations 2
GAMG:  Solving for p, Initial residual = 0.021837299, Final residual = 0.00011771996, No Iterations 3
GAMG:  Solving for p, Initial residual = 0.0015190234, Final residual = 1.0857659e-05, No Iterations 3
GAMG:  Solving for p, Initial residual = 0.00020944723, Final residual = 1.3098364e-06, No Iterations 4
GAMG:  Solving for p, Initial residual = 4.7746544e-05, Final residual = 2.951131e-07, No Iterations 4
GAMG:  Solving for p, Initial residual = 1.16551e-05, Final residual = 7.6861083e-08, No Iterations 4
GAMG:  Solving for p, Initial residual = 3.3280982e-06, Final residual = 2.0969704e-08, No Iterations 4
time step continuity errors : sum local = 4.591255e-09, global = -1.4980671e-10, cumulative = -1.1998985e-08
smoothSolver:  Solving for omega, Initial residual = 0.018972047, Final residual = 0.0012983172, No Iterations 3
smoothSolver:  Solving for k, Initial residual = 0.0095689118, Final residual = 0.00060233705, No Iterations 3
ExecutionTime = 66.056 s  ClockTime = 66 s

forces forces write:
    Sum of forces
        Total    : (0.073441546 3.6950274 -0.11482729)
        Pressure : (0.065703709 3.6972163 -0.11620567)
        Viscous  : (0.0077378363 -0.0021888668 0.0013783719)
    Sum of moments
        Total    : (-2.3547803 0.092797218 0.48224046)
        Pressure : (-2.3563128 0.089151351 0.47895317)
        Viscous  : (0.0015325024 0.0036458676 0.0032872981)


Time = 36

smoothSolver:  Solving for Ux, Initial residual = 0.0019843612, Final residual = 5.5723204e-05, No Iterations 2
smoothSolver:  Solving for Uy, Initial residual = 0.0012380613, Final residual = 3.2986072e-05, No Iterations 2
smoothSolver:  Solving for Uz, Initial residual = 0.0064367731, Final residual = 0.00021081613, No Iterations 2
GAMG:  Solving for p, Initial residual = 0.020805542, Final residual = 0.00011072674, No Iterations 3
GAMG:  Solving for p, Initial residual = 0.0014512048, Final residual = 9.0711516e-06, No Iterations 3
GAMG:  Solving for p, Initial residual = 0.0002026537, Final residual = 1.9516522e-06, No Iterations 3
GAMG:  Solving for p, Initial residual = 4.7731121e-05, Final residual = 2.2608847e-07, No Iterations 4
GAMG:  Solving for p, Initial residual = 1.1510729e-05, Final residual = 1.0358741e-07, No Iterations 3
GAMG:  Solving for p, Initial residual = 3.3299317e-06, Final residual = 2.3949537e-08, No Iterations 4
time step continuity errors : sum local = 5.2259596e-09, global = -2.3810358e-10, cumulative = -1.2237089e-08
smoothSolver:  Solving for omega, Initial residual = 0.018206264, Final residual = 0.0012457662, No Iterations 3
smoothSolver:  Solving for k, Initial residual = 0.0093676919, Final residual = 0.00058889231, No Iterations 3
ExecutionTime = 67.876 s  ClockTime = 68 s

forces forces write:
    Sum of forces
        Total    : (0.074597847 3.6951971 -0.11428082)
        Pressure : (0.066998788 3.6976392 -0.11553501)
        Viscous  : (0.0075990588 -0.0024420424 0.0012541914)
    Sum of moments
        Total    : (-2.3550824 0.093015048 0.48401801)
        Pressure : (-2.3567532 0.089520222 0.48063669)
        Viscous  : (0.0016707177 0.0034948256 0.003381313)


Time = 37

smoothSolver:  Solving for Ux, Initial residual = 0.0019727552, Final residual = 5.5170638e-05, No Iterations 2
smoothSolver:  Solving for Uy, Initial residual = 0.0012024155, Final residual = 3.2271496e-05, No Iterations 2
smoothSolver:  Solving for Uz, Initial residual = 0.0063516489, Final residual = 0.00020774169, No Iterations 2
GAMG:  Solving for p, Initial residual = 0.019881943, Final residual = 0.00010775056, No Iterations 3
GAMG:  Solving for p, Initial residual = 0.0013781582, Final residual = 8.9334551e-06, No Iterations 3
GAMG:  Solving for p, Initial residual = 0.00019411157, Final residual = 8.7989808e-07, No Iterations 4
GAMG:  Solving for p, Initial residual = 4.4507227e-05, Final residual = 3.9356644e-07, No Iterations 3
GAMG:  Solving for p, Initial residual = 1.1009436e-05, Final residual = 8.8339088e-08, No Iterations 4
GAMG:  Solving for p, Initial residual = 3.1393262e-06, Final residual = 2.143892e-08, No Iterations 4
time step continuity errors : sum local = 4.6634798e-09, global = 1.6752186e-10, cumulative = -1.2069567e-08
smoothSolver:  Solving for omega, Initial residual = 0.01748474, Final residual = 0.001196353, No Iterations 3
smoothSolver:  Solving for k, Initial residual = 0.0091777957, Final residual = 0.00057631186, No Iterations 3
ExecutionTime = 69.516 s  ClockTime = 70 s

forces forces write:
    Sum of forces
        Total    : (0.075285456 3.6954467 -0.11392142)
        Pressure : (0.067840764 3.6981127 -0.11504116)
        Viscous  : (0.0074446922 -0.0026659442 0.0011197416)
    Sum of moments
        Total    : (-2.3553471 0.093086675 0.48490934)
        Pressure : (-2.3571459 0.089749235 0.4814345)
        Viscous  : (0.0017987668 0.0033374398 0.0034748391)


Time = 38

smoothSolver:  Solving for Ux, Initial residual = 0.0019596565, Final residual = 5.4522188e-05, No Iterations 2
smoothSolver:  Solving for Uy, Initial residual = 0.0011960318, Final residual = 3.2229937e-05, No Iterations 2
smoothSolver:  Solving for Uz, Initial residual = 0.0062655198, Final residual = 0.00020314743, No Iterations 2
GAMG:  Solving for p, Initial residual = 0.01902904, Final residual = 9.8012617e-05, No Iterations 3
GAMG:  Solving for p, Initial residual = 0.0012801522, Final residual = 8.4469872e-06, No Iterations 3
GAMG:  Solving for p, Initial residual = 0.00017988774, Final residual = 1.0623293e-06, No Iterations 4
GAMG:  Solving for p, Initial residual = 4.0813354e-05, Final residual = 2.3885337e-07, No Iterations 4
GAMG:  Solving for p, Initial residual = 9.9875938e-06, Final residual = 6.5512245e-08, No Iterations 4
GAMG:  Solving for p, Initial residual = 2.8378388e-06, Final residual = 1.7151444e-08, No Iterations 4
time step continuity errors : sum local = 3.7181097e-09, global = 1.2348912e-10, cumulative = -1.1946078e-08
smoothSolver:  Solving for omega, Initial residual = 0.016804477, Final residual = 0.0011498231, No Iterations 3
smoothSolver:  Solving for k, Initial residual = 0.0089984688, Final residual = 0.00056453057, No Iterations 3
ExecutionTime = 71.086 s  ClockTime = 71 s

forces forces write:
    Sum of forces
        Total    : (0.075582097 3.694983 -0.11371958)
        Pressure : (0.068284051 3.6978727 -0.11471539)
        Viscous  : (0.0072980467 -0.0028897181 0.00099580651)
    Sum of moments
        Total    : (-2.3551265 0.093064998 0.4850544)
        Pressure : (-2.3570518 0.089886092 0.48148414)
        Viscous  : (0.0019252704 0.0031789061 0.0035702542)


Time = 39

smoothSolver:  Solving for Ux, Initial residual = 0.001940792, Final residual = 5.367708e-05, No Iterations 2
smoothSolver:  Solving for Uy, Initial residual = 0.0011993429, Final residual = 3.2344636e-05, No Iterations 2
smoothSolver:  Solving for Uz, Initial residual = 0.0061685993, Final residual = 0.00019698722, No Iterations 2
GAMG:  Solving for p, Initial residual = 0.01817187, Final residual = 9.030965e-05, No Iterations 3
GAMG:  Solving for p, Initial residual = 0.0011836111, Final residual = 7.8259195e-06, No Iterations 3
GAMG:  Solving for p, Initial residual = 0.00016580316, Final residual = 9.6626059e-07, No Iterations 4
GAMG:  Solving for p, Initial residual = 3.7450981e-05, Final residual = 2.1149357e-07, No Iterations 4
GAMG:  Solving for p, Initial residual = 9.0625645e-06, Final residual = 5.7091331e-08, No Iterations 4
GAMG:  Solving for p, Initial residual = 2.5696043e-06, Final residual = 1.4737617e-08, No Iterations 4
time step continuity errors : sum local = 3.1825473e-09, global = 1.0536198e-10, cumulative = -1.1840716e-08
smoothSolver:  Solving for omega, Initial residual = 0.016162826, Final residual = 0.0011059566, No Iterations 3
smoothSolver:  Solving for k, Initial residual = 0.0088285485, Final residual = 0.00055345849, No Iterations 3
ExecutionTime = 72.736 s  ClockTime = 73 s

forces forces write:
    Sum of forces
        Total    : (0.07568426 3.6936908 -0.11359929)
        Pressure : (0.068551015 3.6968042 -0.1144759)
        Viscous  : (0.0071332451 -0.0031134349 0.00087661731)
    Sum of moments
        Total    : (-2.3543934 0.093030856 0.48501458)
        Pressure : (-2.3564464 0.090014238 0.48134561)
        Viscous  : (0.0020530025 0.0030166174 0.0036689665)


Time = 40

smoothSolver:  Solving for Ux, Initial residual = 0.0019205998, Final residual = 5.2805567e-05, No Iterations 2
smoothSolver:  Solving for Uy, Initial residual = 0.0011887195, Final residual = 3.1935885e-05, No Iterations 2
smoothSolver:  Solving for Uz, Initial residual = 0.0060602964, Final residual = 0.00019006568, No Iterations 2
GAMG:  Solving for p, Initial residual = 0.01739209, Final residual = 8.4070332e-05, No Iterations 3
GAMG:  Solving for p, Initial residual = 0.0011101493, Final residual = 7.8760339e-06, No Iterations 3
GAMG:  Solving for p, Initial residual = 0.00015634329, Final residual = 9.4886401e-07, No Iterations 4
GAMG:  Solving for p, Initial residual = 3.5566019e-05, Final residual = 1.941742e-07, No Iterations 4
GAMG:  Solving for p, Initial residual = 8.5652727e-06, Final residual = 5.0290696e-08, No Iterations 4
GAMG:  Solving for p, Initial residual = 2.4371919e-06, Final residual = 2.4338159e-08, No Iterations 3
time step continuity errors : sum local = 5.2343498e-09, global = 1.7462399e-10, cumulative = -1.1666092e-08
smoothSolver:  Solving for omega, Initial residual = 0.015557008, Final residual = 0.0010645629, No Iterations 3
smoothSolver:  Solving for k, Initial residual = 0.0086679532, Final residual = 0.0005430756, No Iterations 3
ExecutionTime = 74.606 s  ClockTime = 75 s

forces forces write:
    Sum of forces
        Total    : (0.075822648 3.6919981 -0.11348594)
        Pressure : (0.068856214 3.6953481 -0.11423057)
        Viscous  : (0.0069664337 -0.0033500078 0.000744631)
    Sum of moments
        Total    : (-2.3534495 0.09305125 0.48530374)
        Pressure : (-2.3556375 0.090196335 0.48153112)
        Viscous  : (0.0021880487 0.0028549152 0.0037726282)


Time = 41

smoothSolver:  Solving for Ux, Initial residual = 0.0019029705, Final residual = 5.212323e-05, No Iterations 2
smoothSolver:  Solving for Uy, Initial residual = 0.0011563275, Final residual = 3.0860439e-05, No Iterations 2
smoothSolver:  Solving for Uz, Initial residual = 0.0059585982, Final residual = 0.00018277332, No Iterations 2
GAMG:  Solving for p, Initial residual = 0.016727221, Final residual = 7.7804102e-05, No Iterations 3
GAMG:  Solving for p, Initial residual = 0.0010542193, Final residual = 7.512136e-06, No Iterations 3
GAMG:  Solving for p, Initial residual = 0.000149833, Final residual = 6.8521456e-07, No Iterations 4
GAMG:  Solving for p, Initial residual = 3.4063611e-05, Final residual = 2.5956906e-07, No Iterations 3
GAMG:  Solving for p, Initial residual = 8.3371829e-06, Final residual = 4.9935884e-08, No Iterations 4
GAMG:  Solving for p, Initial residual = 2.3591736e-06, Final residual = 2.3199257e-08, No Iterations 3
time step continuity errors : sum local = 4.9693659e-09, global = -2.1573215e-10, cumulative = -1.1881824e-08
smoothSolver:  Solving for omega, Initial residual = 0.014984818, Final residual = 0.0010254749, No Iterations 3
smoothSolver:  Solving for k, Initial residual = 0.0085160541, Final residual = 0.00053332544, No Iterations 3
ExecutionTime = 76.441 s  ClockTime = 77 s

forces forces write:
    Sum of forces
        Total    : (0.076097835 3.6904844 -0.11332705)
        Pressure : (0.069282746 3.6941039 -0.11394159)
        Viscous  : (0.0068150891 -0.0036195284 0.00061454597)
    Sum of moments
        Total    : (-2.3526535 0.093138947 0.48608831)
        Pressure : (-2.3549886 0.090441304 0.48220615)
        Viscous  : (0.002335119 0.0026976423 0.0038821637)


Time = 42

smoothSolver:  Solving for Ux, Initial residual = 0.0018879279, Final residual = 5.1597138e-05, No Iterations 2
smoothSolver:  Solving for Uy, Initial residual = 0.0011178158, Final residual = 2.9476576e-05, No Iterations 2
smoothSolver:  Solving for Uz, Initial residual = 0.0058715629, Final residual = 0.00017568519, No Iterations 2
GAMG:  Solving for p, Initial residual = 0.016091889, Final residual = 7.1590837e-05, No Iterations 3
GAMG:  Solving for p, Initial residual = 0.0010007764, Final residual = 6.44224e-06, No Iterations 3
GAMG:  Solving for p, Initial residual = 0.00014176631, Final residual = 1.38397e-06, No Iterations 3
GAMG:  Solving for p, Initial residual = 3.2871363e-05, Final residual = 1.8111989e-07, No Iterations 4
GAMG:  Solving for p, Initial residual = 7.790165e-06, Final residual = 4.2800841e-08, No Iterations 4
GAMG:  Solving for p, Initial residual = 2.1938435e-06, Final residual = 2.1162464e-08, No Iterations 3
time step continuity errors : sum local = 4.5159962e-09, global = -1.1969878e-10, cumulative = -1.2001523e-08
smoothSolver:  Solving for omega, Initial residual = 0.014444203, Final residual = 0.00098852053, No Iterations 3
smoothSolver:  Solving for k, Initial residual = 0.0083726638, Final residual = 0.00052417664, No Iterations 3
ExecutionTime = 78.229 s  ClockTime = 78 s

forces forces write:
    Sum of forces
        Total    : (0.076412558 3.6894804 -0.11314878)
        Pressure : (0.069765867 3.6934001 -0.11362681)
        Viscous  : (0.0066466903 -0.0039196352 0.00047803301)
    Sum of moments
        Total    : (-2.3521681 0.093254706 0.48717755)
        Pressure : (-2.3546621 0.090712668 0.4831792)
        Viscous  : (0.0024940331 0.002542038 0.0039983539)


Time = 43

smoothSolver:  Solving for Ux, Initial residual = 0.0018753613, Final residual = 5.1221443e-05, No Iterations 2
smoothSolver:  Solving for Uy, Initial residual = 0.0010937334, Final residual = 2.8505328e-05, No Iterations 2
smoothSolver:  Solving for Uz, Initial residual = 0.0057937751, Final residual = 0.0001692819, No Iterations 2
GAMG:  Solving for p, Initial residual = 0.01542573, Final residual = 6.8276589e-05, No Iterations 3
GAMG:  Solving for p, Initial residual = 0.00094031564, Final residual = 5.6384985e-06, No Iterations 3
GAMG:  Solving for p, Initial residual = 0.00013222926, Final residual = 6.7039743e-07, No Iterations 4
GAMG:  Solving for p, Initial residual = 3.013702e-05, Final residual = 2.8543953e-07, No Iterations 3
GAMG:  Solving for p, Initial residual = 7.371487e-06, Final residual = 5.8318191e-08, No Iterations 4
GAMG:  Solving for p, Initial residual = 2.0728465e-06, Final residual = 1.353787e-08, No Iterations 4
time step continuity errors : sum local = 2.8787205e-09, global = -1.5071042e-11, cumulative = -1.2016594e-08
smoothSolver:  Solving for omega, Initial residual = 0.013933188, Final residual = 0.00095358436, No Iterations 3
smoothSolver:  Solving for k, Initial residual = 0.0082371577, Final residual = 0.00051558253, No Iterations 3
ExecutionTime = 80.129 s  ClockTime = 80 s

forces forces write:
    Sum of forces
        Total    : (0.076673505 3.6889066 -0.11292535)
        Pressure : (0.070202181 3.6931502 -0.1133196)
        Viscous  : (0.0064713246 -0.004243644 0.00039425616)
    Sum of moments
        Total    : (-2.3519014 0.093351546 0.48824201)
        Pressure : (-2.3545664 0.090962134 0.48412059)
        Viscous  : (0.0026650293 0.0023894125 0.0041214219)


Time = 44

smoothSolver:  Solving for Ux, Initial residual = 0.0018627111, Final residual = 5.0888508e-05, No Iterations 2
smoothSolver:  Solving for Uy, Initial residual = 0.0010847116, Final residual = 2.7887557e-05, No Iterations 2
smoothSolver:  Solving for Uz, Initial residual = 0.0057109116, Final residual = 0.00016362776, No Iterations 2
GAMG:  Solving for p, Initial residual = 0.01477085, Final residual = 6.3467739e-05, No Iterations 3
GAMG:  Solving for p, Initial residual = 0.00088365531, Final residual = 5.1699867e-06, No Iterations 3
GAMG:  Solving for p, Initial residual = 0.00012422388, Final residual = 7.0972927e-07, No Iterations 4
GAMG:  Solving for p, Initial residual = 2.8796883e-05, Final residual = 1.5711953e-07, No Iterations 4
GAMG:  Solving for p, Initial residual = 6.8448282e-06, Final residual = 4.0195684e-08, No Iterations 4
GAMG:  Solving for p, Initial residual = 1.9635495e-06, Final residual = 1.9444951e-08, No Iterations 3
time step continuity errors : sum local = 4.120388e-09, global = 5.0098319e-11, cumulative = -1.1966495e-08
smoothSolver:  Solving for omega, Initial residual = 0.013450088, Final residual = 0.00092054028, No Iterations 3
smoothSolver:  Solving for k, Initial residual = 0.0081090145, Final residual = 0.00050750279, No Iterations 3
ExecutionTime = 82.005 s  ClockTime = 82 s

forces forces write:
    Sum of forces
        Total    : (0.076815163 3.6884379 -0.11275661)
        Pressure : (0.070516441 3.6930281 -0.11305828)
        Viscous  : (0.0062987218 -0.0045902112 0.00030167254)
    Sum of moments
        Total    : (-2.3516466 0.093408458 0.48905924)
        Pressure : (-2.3544891 0.091162972 0.48480904)
        Viscous  : (0.0028424771 0.0022454857 0.0042501983)


Time = 45

smoothSolver:  Solving for Ux, Initial residual = 0.0018479812, Final residual = 5.0593295e-05, No Iterations 2
smoothSolver:  Solving for Uy, Initial residual = 0.0010735199, Final residual = 2.7229712e-05, No Iterations 2
smoothSolver:  Solving for Uz, Initial residual = 0.005613874, Final residual = 0.00015834307, No Iterations 2
GAMG:  Solving for p, Initial residual = 0.014185114, Final residual = 5.6554735e-05, No Iterations 3
GAMG:  Solving for p, Initial residual = 0.00082481659, Final residual = 4.8699446e-06, No Iterations 3
GAMG:  Solving for p, Initial residual = 0.00011771932, Final residual = 6.6758911e-07, No Iterations 4
GAMG:  Solving for p, Initial residual = 2.725903e-05, Final residual = 1.5187854e-07, No Iterations 4
GAMG:  Solving for p, Initial residual = 6.4962449e-06, Final residual = 3.9356769e-08, No Iterations 4
GAMG:  Solving for p, Initial residual = 1.8579433e-06, Final residual = 1.0218021e-08, No Iterations 4
[...]
smoothSolver:  Solving for k, Initial residual = 0.001273218, Final residual = 6.4835151e-05, No Iterations 3
ExecutionTime = 407.958 s  ClockTime = 408 s

forces forces write:
    Sum of forces
        Total    : (0.080779527 3.7466868 -0.064764879)
        Pressure : (0.081837871 3.7233487 -0.067895596)
        Viscous  : (-0.001058344 0.02333814 0.0031307169)
    Sum of moments
        Total    : (-2.3766803 0.06296576 0.57720164)
        Pressure : (-2.3613294 0.070803634 0.53046955)
        Viscous  : (-0.015350905 -0.0078378738 0.046732094)


Time = 228

smoothSolver:  Solving for Ux, Initial residual = 9.5048589e-05, Final residual = 2.7247663e-06, No Iterations 2
smoothSolver:  Solving for Uy, Initial residual = 8.5935388e-05, Final residual = 3.0349397e-06, No Iterations 2
smoothSolver:  Solving for Uz, Initial residual = 0.00024911218, Final residual = 8.1299475e-06, No Iterations 2
GAMG:  Solving for p, Initial residual = 0.00036598634, Final residual = 3.4244977e-06, No Iterations 3
GAMG:  Solving for p, Initial residual = 3.2127738e-05, Final residual = 3.132757e-07, No Iterations 4
GAMG:  Solving for p, Initial residual = 4.664962e-06, Final residual = 2.4555175e-08, No Iterations 5
GAMG:  Solving for p, Initial residual = 1.0277884e-06, Final residual = 7.0659619e-09, No Iterations 4
GAMG:  Solving for p, Initial residual = 2.4125608e-07, Final residual = 6.0342737e-09, No Iterations 2
GAMG:  Solving for p, Initial residual = 7.0991012e-08, Final residual = 6.3662163e-09, No Iterations 1
time step continuity errors : sum local = 8.4684326e-10, global = -3.0082057e-11, cumulative = -1.6051243e-08
smoothSolver:  Solving for omega, Initial residual = 0.00016864425, Final residual = 9.0087831e-06, No Iterations 3
smoothSolver:  Solving for k, Initial residual = 0.0012449736, Final residual = 6.3326714e-05, No Iterations 3
ExecutionTime = 409.588 s  ClockTime = 410 s

forces forces write:
    Sum of forces
        Total    : (0.080805532 3.746814 -0.064712111)
        Pressure : (0.081856637 3.7234408 -0.067866104)
        Viscous  : (-0.0010511056 0.023373185 0.0031539932)
    Sum of moments
        Total    : (-2.3767226 0.062939846 0.57730221)
        Pressure : (-2.3613475 0.070773221 0.53052566)
        Viscous  : (-0.015375034 -0.0078333755 0.046776553)


Time = 229

smoothSolver:  Solving for Ux, Initial residual = 9.3691312e-05, Final residual = 2.6872369e-06, No Iterations 2
smoothSolver:  Solving for Uy, Initial residual = 8.4740891e-05, Final residual = 2.9924985e-06, No Iterations 2
smoothSolver:  Solving for Uz, Initial residual = 0.00024559115, Final residual = 8.0119543e-06, No Iterations 2
GAMG:  Solving for p, Initial residual = 0.00036002592, Final residual = 3.3418703e-06, No Iterations 3
GAMG:  Solving for p, Initial residual = 3.1490155e-05, Final residual = 3.0539059e-07, No Iterations 4
GAMG:  Solving for p, Initial residual = 4.5619475e-06, Final residual = 2.3585313e-08, No Iterations 5
GAMG:  Solving for p, Initial residual = 9.9904805e-07, Final residual = 6.7448381e-09, No Iterations 4
GAMG:  Solving for p, Initial residual = 2.3415204e-07, Final residual = 5.747714e-09, No Iterations 2
GAMG:  Solving for p, Initial residual = 6.8925352e-08, Final residual = 6.1092399e-09, No Iterations 1
time step continuity errors : sum local = 8.1167239e-10, global = -2.8842575e-11, cumulative = -1.6080085e-08
smoothSolver:  Solving for omega, Initial residual = 0.00016673301, Final residual = 8.9121336e-06, No Iterations 3
smoothSolver:  Solving for k, Initial residual = 0.0012172607, Final residual = 6.1849258e-05, No Iterations 3
ExecutionTime = 411.178 s  ClockTime = 411 s

forces forces write:
    Sum of forces
        Total    : (0.080831033 3.7469392 -0.06466104)
        Pressure : (0.081874605 3.7235306 -0.067837665)
        Viscous  : (-0.0010435723 0.023408611 0.0031766251)
    Sum of moments
        Total    : (-2.3767642 0.062915136 0.57740112)
        Pressure : (-2.3613657 0.070743673 0.5305799)
        Viscous  : (-0.015398577 -0.0078285368 0.046821221)


Time = 230

smoothSolver:  Solving for Ux, Initial residual = 9.2354975e-05, Final residual = 2.650295e-06, No Iterations 2
smoothSolver:  Solving for Uy, Initial residual = 8.3554807e-05, Final residual = 2.9502836e-06, No Iterations 2
smoothSolver:  Solving for Uz, Initial residual = 0.00024208673, Final residual = 7.8946093e-06, No Iterations 2
GAMG:  Solving for p, Initial residual = 0.00035442437, Final residual = 3.2598895e-06, No Iterations 3
GAMG:  Solving for p, Initial residual = 3.0820378e-05, Final residual = 2.9582423e-07, No Iterations 4
GAMG:  Solving for p, Initial residual = 4.4682541e-06, Final residual = 2.2602977e-08, No Iterations 5
GAMG:  Solving for p, Initial residual = 9.8437359e-07, Final residual = 6.4805638e-09, No Iterations 4
GAMG:  Solving for p, Initial residual = 2.3162141e-07, Final residual = 5.5659587e-09, No Iterations 2
GAMG:  Solving for p, Initial residual = 6.8196621e-08, Final residual = 5.9551118e-09, No Iterations 1
time step continuity errors : sum local = 7.9025399e-10, global = -2.8090624e-11, cumulative = -1.6108176e-08
smoothSolver:  Solving for omega, Initial residual = 0.00016487489, Final residual = 8.8175863e-06, No Iterations 3
smoothSolver:  Solving for k, Initial residual = 0.0011900717, Final residual = 6.0402317e-05, No Iterations 3
ExecutionTime = 412.998 s  ClockTime = 413 s

forces forces write:
    Sum of forces
        Total    : (0.080856109 3.7470625 -0.064611448)
        Pressure : (0.081891763 3.7236179 -0.067810317)
        Viscous  : (-0.0010356543 0.023444616 0.0031988692)
    Sum of moments
        Total    : (-2.3768053 0.062891406 0.57749855)
        Pressure : (-2.3613837 0.070715022 0.53063224)
        Viscous  : (-0.015421569 -0.0078236158 0.046866314)


Time = 231

smoothSolver:  Solving for Ux, Initial residual = 9.1040265e-05, Final residual = 2.6139556e-06, No Iterations 2
smoothSolver:  Solving for Uy, Initial residual = 8.2372492e-05, Final residual = 2.9083181e-06, No Iterations 2
smoothSolver:  Solving for Uz, Initial residual = 0.00023861664, Final residual = 7.7780261e-06, No Iterations 2
GAMG:  Solving for p, Initial residual = 0.0003490336, Final residual = 3.1814727e-06, No Iterations 3
GAMG:  Solving for p, Initial residual = 3.0205767e-05, Final residual = 2.8612071e-07, No Iterations 4
GAMG:  Solving for p, Initial residual = 4.3974674e-06, Final residual = 4.3860027e-08, No Iterations 4
GAMG:  Solving for p, Initial residual = 9.9012443e-07, Final residual = 9.2038026e-09, No Iterations 4
GAMG:  Solving for p, Initial residual = 2.3183786e-07, Final residual = 7.1322371e-09, No Iterations 2
GAMG:  Solving for p, Initial residual = 6.9041898e-08, Final residual = 7.3720115e-09, No Iterations 1
time step continuity errors : sum local = 9.7714044e-10, global = -4.0134917e-11, cumulative = -1.6148311e-08
smoothSolver:  Solving for omega, Initial residual = 0.00016306456, Final residual = 8.7250935e-06, No Iterations 3
smoothSolver:  Solving for k, Initial residual = 0.0011633992, Final residual = 5.8985398e-05, No Iterations 3
ExecutionTime = 414.947 s  ClockTime = 415 s

forces forces write:
    Sum of forces
        Total    : (0.08088075 3.7471838 -0.064563365)
        Pressure : (0.081908113 3.7237025 -0.067784029)
        Viscous  : (-0.0010273626 0.023481225 0.0032206638)
    Sum of moments
        Total    : (-2.3768457 0.062868747 0.57759439)
        Pressure : (-2.3614017 0.070687259 0.53068261)
        Viscous  : (-0.015443972 -0.0078185113 0.046911785)


Time = 232

smoothSolver:  Solving for Ux, Initial residual = 8.9747111e-05, Final residual = 2.578215e-06, No Iterations 2
smoothSolver:  Solving for Uy, Initial residual = 8.1198809e-05, Final residual = 2.8665939e-06, No Iterations 2
smoothSolver:  Solving for Uz, Initial residual = 0.00023516993, Final residual = 7.6623647e-06, No Iterations 2
GAMG:  Solving for p, Initial residual = 0.00034359505, Final residual = 3.1008751e-06, No Iterations 3
GAMG:  Solving for p, Initial residual = 2.9656678e-05, Final residual = 2.7728618e-07, No Iterations 4
GAMG:  Solving for p, Initial residual = 4.3253748e-06, Final residual = 4.242076e-08, No Iterations 4
GAMG:  Solving for p, Initial residual = 9.8061909e-07, Final residual = 8.9786386e-09, No Iterations 4
GAMG:  Solving for p, Initial residual = 2.3036277e-07, Final residual = 6.9608156e-09, No Iterations 2
GAMG:  Solving for p, Initial residual = 6.8486406e-08, Final residual = 7.2203921e-09, No Iterations 1
time step continuity errors : sum local = 9.5595295e-10, global = -3.9374683e-11, cumulative = -1.6187686e-08
smoothSolver:  Solving for omega, Initial residual = 0.00016129681, Final residual = 8.6344778e-06, No Iterations 3
smoothSolver:  Solving for k, Initial residual = 0.0011372362, Final residual = 5.7598043e-05, No Iterations 3
ExecutionTime = 416.747 s  ClockTime = 417 s

forces forces write:
    Sum of forces
        Total    : (0.080904878 3.7473026 -0.064516928)
        Pressure : (0.081923662 3.7237845 -0.067758767)
        Viscous  : (-0.0010187843 0.023518081 0.0032418386)
    Sum of moments
        Total    : (-2.3768853 0.062847304 0.57768831)
        Pressure : (-2.3614195 0.070660378 0.53073098)
        Viscous  : (-0.015465807 -0.0078130746 0.046957332)


Time = 233

smoothSolver:  Solving for Ux, Initial residual = 8.8476278e-05, Final residual = 2.5430784e-06, No Iterations 2
smoothSolver:  Solving for Uy, Initial residual = 8.003442e-05, Final residual = 2.8250865e-06, No Iterations 2
smoothSolver:  Solving for Uz, Initial residual = 0.0002317447, Final residual = 7.5473882e-06, No Iterations 2
GAMG:  Solving for p, Initial residual = 0.00033842929, Final residual = 3.0199153e-06, No Iterations 3
GAMG:  Solving for p, Initial residual = 2.9168962e-05, Final residual = 2.6961806e-07, No Iterations 4
GAMG:  Solving for p, Initial residual = 4.263146e-06, Final residual = 4.13303e-08, No Iterations 4
GAMG:  Solving for p, Initial residual = 9.6716769e-07, Final residual = 8.8952893e-09, No Iterations 4
GAMG:  Solving for p, Initial residual = 2.2839554e-07, Final residual = 6.8628398e-09, No Iterations 2
GAMG:  Solving for p, Initial residual = 6.766689e-08, Final residual = 7.1717211e-09, No Iterations 1
time step continuity errors : sum local = 9.4845043e-10, global = -3.9578084e-11, cumulative = -1.6227264e-08
smoothSolver:  Solving for omega, Initial residual = 0.00015956982, Final residual = 8.5456711e-06, No Iterations 3
smoothSolver:  Solving for k, Initial residual = 0.0011115776, Final residual = 5.6239861e-05, No Iterations 3
ExecutionTime = 418.637 s  ClockTime = 419 s

forces forces write:
    Sum of forces
        Total    : (0.080928629 3.7474194 -0.064472059)
        Pressure : (0.08193849 3.7238641 -0.067734561)
        Viscous  : (-0.0010098613 0.023555295 0.0032625023)
    Sum of moments
        Total    : (-2.3769243 0.062826971 0.57778064)
        Pressure : (-2.3614372 0.070634399 0.53077755)
        Viscous  : (-0.015487088 -0.0078074282 0.047003098)


Time = 234

smoothSolver:  Solving for Ux, Initial residual = 8.722707e-05, Final residual = 2.5085433e-06, No Iterations 2
smoothSolver:  Solving for Uy, Initial residual = 7.8877896e-05, Final residual = 2.7837531e-06, No Iterations 2
smoothSolver:  Solving for Uz, Initial residual = 0.00022834547, Final residual = 7.4330946e-06, No Iterations 2
GAMG:  Solving for p, Initial residual = 0.00033336819, Final residual = 2.9399349e-06, No Iterations 3
GAMG:  Solving for p, Initial residual = 2.8655767e-05, Final residual = 2.624691e-07, No Iterations 4
GAMG:  Solving for p, Initial residual = 4.2051694e-06, Final residual = 3.9956294e-08, No Iterations 4
GAMG:  Solving for p, Initial residual = 9.5094223e-07, Final residual = 8.6556013e-09, No Iterations 4
GAMG:  Solving for p, Initial residual = 2.240866e-07, Final residual = 6.6565307e-09, No Iterations 2
GAMG:  Solving for p, Initial residual = 6.6342443e-08, Final residual = 6.9585563e-09, No Iterations 1
time step continuity errors : sum local = 9.1925622e-10, global = -3.8793899e-11, cumulative = -1.6266058e-08
smoothSolver:  Solving for omega, Initial residual = 0.00015788109, Final residual = 8.4584066e-06, No Iterations 3
smoothSolver:  Solving for k, Initial residual = 0.0010864149, Final residual = 5.4910347e-05, No Iterations 3
ExecutionTime = 420.537 s  ClockTime = 421 s

forces forces write:
    Sum of forces
        Total    : (0.080952009 3.7475342 -0.064428745)
        Pressure : (0.081952669 3.7239415 -0.067711396)
        Viscous  : (-0.0010006605 0.023592679 0.0032826518)
    Sum of moments
        Total    : (-2.3769628 0.062807739 0.57787137)
        Pressure : (-2.361455 0.070609313 0.53082247)
        Viscous  : (-0.015507806 -0.007801574 0.047048899)


Time = 235

smoothSolver:  Solving for Ux, Initial residual = 8.5998899e-05, Final residual = 2.4745731e-06, No Iterations 2
smoothSolver:  Solving for Uy, Initial residual = 7.7731027e-05, Final residual = 2.7427329e-06, No Iterations 2
smoothSolver:  Solving for Uz, Initial residual = 0.00022497073, Final residual = 7.3197255e-06, No Iterations 2
GAMG:  Solving for p, Initial residual = 0.00032843583, Final residual = 2.8661484e-06, No Iterations 3
GAMG:  Solving for p, Initial residual = 2.8134449e-05, Final residual = 2.5581918e-07, No Iterations 4
GAMG:  Solving for p, Initial residual = 4.1260054e-06, Final residual = 3.8677841e-08, No Iterations 4
GAMG:  Solving for p, Initial residual = 9.3409217e-07, Final residual = 8.3481055e-09, No Iterations 4
GAMG:  Solving for p, Initial residual = 2.1996896e-07, Final residual = 6.4154217e-09, No Iterations 2
GAMG:  Solving for p, Initial residual = 6.5162678e-08, Final residual = 6.7291913e-09, No Iterations 1
time step continuity errors : sum local = 8.8800822e-10, global = -3.7656008e-11, cumulative = -1.6303714e-08
smoothSolver:  Solving for omega, Initial residual = 0.00015622671, Final residual = 8.3726449e-06, No Iterations 3
smoothSolver:  Solving for k, Initial residual = 0.0010617433, Final residual = 5.3609129e-05, No Iterations 3
ExecutionTime = 422.417 s  ClockTime = 423 s

forces forces write:
    Sum of forces
        Total    : (0.08097505 3.7476468 -0.064387184)
        Pressure : (0.081966261 3.7240168 -0.067689254)
        Viscous  : (-0.00099121011 0.02363004 0.0033020696)
    Sum of moments
        Total    : (-2.3770008 0.062789795 0.57796039)
        Pressure : (-2.3614728 0.070585092 0.53086582)
        Viscous  : (-0.01552798 -0.0077952973 0.047094573)


Time = 236

smoothSolver:  Solving for Ux, Initial residual = 8.479122e-05, Final residual = 2.4411492e-06, No Iterations 2
smoothSolver:  Solving for Uy, Initial residual = 7.659361e-05, Final residual = 2.7020565e-06, No Iterations 2
smoothSolver:  Solving for Uz, Initial residual = 0.00022161747, Final residual = 7.2071694e-06, No Iterations 2
GAMG:  Solving for p, Initial residual = 0.00032389958, Final residual = 2.7979324e-06, No Iterations 3
GAMG:  Solving for p, Initial residual = 2.7686888e-05, Final residual = 2.4925423e-07, No Iterations 4
GAMG:  Solving for p, Initial residual = 4.0621815e-06, Final residual = 3.754663e-08, No Iterations 4
GAMG:  Solving for p, Initial residual = 9.1997438e-07, Final residual = 8.1172607e-09, No Iterations 4
GAMG:  Solving for p, Initial residual = 2.1697015e-07, Final residual = 6.2270786e-09, No Iterations 2
GAMG:  Solving for p, Initial residual = 6.4360546e-08, Final residual = 6.5526644e-09, No Iterations 1
time step continuity errors : sum local = 8.638121e-10, global = -3.6958075e-11, cumulative = -1.6340672e-08
smoothSolver:  Solving for omega, Initial residual = 0.00015460646, Final residual = 8.2883837e-06, No Iterations 3
smoothSolver:  Solving for k, Initial residual = 0.0010375578, Final residual = 5.2335824e-05, No Iterations 3
ExecutionTime = 424.225 s  ClockTime = 424 s

forces forces write:
    Sum of forces
        Total    : (0.080997922 3.7477577 -0.064347146)
        Pressure : (0.081979351 3.7240901 -0.067668033)
        Viscous  : (-0.00098142916 0.023667595 0.0033208869)
    Sum of moments
        Total    : (-2.3770381 0.062772892 0.5780481)
        Pressure : (-2.3614904 0.070561641 0.53090774)
        Viscous  : (-0.015547653 -0.0077887492 0.047140364)


Time = 237

smoothSolver:  Solving for Ux, Initial residual = 8.3602917e-05, Final residual = 2.4082232e-06, No Iterations 2
smoothSolver:  Solving for Uy, Initial residual = 7.5462529e-05, Final residual = 2.6615808e-06, No Iterations 2
smoothSolver:  Solving for Uz, Initial residual = 0.00021828894, Final residual = 7.095325e-06, No Iterations 2
GAMG:  Solving for p, Initial residual = 0.0003196454, Final residual = 2.7351194e-06, No Iterations 3
GAMG:  Solving for p, Initial residual = 2.7275399e-05, Final residual = 2.4288555e-07, No Iterations 4
GAMG:  Solving for p, Initial residual = 4.0067906e-06, Final residual = 3.6587984e-08, No Iterations 4
GAMG:  Solving for p, Initial residual = 9.0788949e-07, Final residual = 7.890232e-09, No Iterations 4
GAMG:  Solving for p, Initial residual = 2.1418866e-07, Final residual = 6.051427e-09, No Iterations 2
GAMG:  Solving for p, Initial residual = 6.3565119e-08, Final residual = 6.3870531e-09, No Iterations 1
time step continuity errors : sum local = 8.4112291e-10, global = -3.6326763e-11, cumulative = -1.6376999e-08
smoothSolver:  Solving for omega, Initial residual = 0.00015301768, Final residual = 8.2055376e-06, No Iterations 3
smoothSolver:  Solving for k, Initial residual = 0.0010138527, Final residual = 5.1090024e-05, No Iterations 3
ExecutionTime = 425.955 s  ClockTime = 426 s

forces forces write:
    Sum of forces
        Total    : (0.081020644 3.7478669 -0.064308322)
        Pressure : (0.081991989 3.7241615 -0.067647599)
        Viscous  : (-0.00097134529 0.023705409 0.0033392777)
    Sum of moments
        Total    : (-2.3770748 0.062756836 0.57813472)
        Pressure : (-2.361508 0.070538875 0.5309484)
        Viscous  : (-0.015566813 -0.0077820385 0.047186319)


Time = 238

smoothSolver:  Solving for Ux, Initial residual = 8.2434509e-05, Final residual = 2.3757693e-06, No Iterations 2
smoothSolver:  Solving for Uy, Initial residual = 7.4337241e-05, Final residual = 2.6213138e-06, No Iterations 2
smoothSolver:  Solving for Uz, Initial residual = 0.00021499137, Final residual = 6.9844025e-06, No Iterations 2
GAMG:  Solving for p, Initial residual = 0.00031531613, Final residual = 2.6747671e-06, No Iterations 3
GAMG:  Solving for p, Initial residual = 2.6893777e-05, Final residual = 2.3691574e-07, No Iterations 4
GAMG:  Solving for p, Initial residual = 3.9491065e-06, Final residual = 3.5492468e-08, No Iterations 4
GAMG:  Solving for p, Initial residual = 8.9529772e-07, Final residual = 7.6655161e-09, No Iterations 4
GAMG:  Solving for p, Initial residual = 2.1131257e-07, Final residual = 5.874716e-09, No Iterations 2
GAMG:  Solving for p, Initial residual = 6.2761748e-08, Final residual = 6.2169369e-09, No Iterations 1
time step continuity errors : sum local = 8.1790555e-10, global = -3.5557945e-11, cumulative = -1.6412556e-08
smoothSolver:  Solving for omega, Initial residual = 0.00015145941, Final residual = 8.1239629e-06, No Iterations 3
smoothSolver:  Solving for k, Initial residual = 0.00099062149, Final residual = 4.9871281e-05, No Iterations 3
ExecutionTime = 427.415 s  ClockTime = 428 s


SIMPLE solution converged in 238 iterations

forces forces write:
    Sum of forces
        Total    : (0.081043178 3.7479747 -0.064270544)
        Pressure : (0.082004176 3.7242312 -0.067627883)
        Viscous  : (-0.00096099863 0.023743476 0.003357339)
    Sum of moments
        Total    : (-2.3771108 0.062741491 0.57822029)
        Pressure : (-2.3615253 0.070516772 0.53098787)
        Viscous  : (-0.015585479 -0.0077752808 0.047232425)


End

Finalising parallel run
