/*---------------------------------------------------------------------------*\
| =========                 |                                                 |
| \\      /  F ield         | OpenFOAM: The Open Source CFD Toolbox           |
|  \\    /   O peration     | Version:  v2012                                 |
|   \\  /    A nd           | Website:  www.openfoam.com                      |
|    \\/     M anipulation  |                                                 |
\*---------------------------------------------------------------------------*/
Build  : 79e353b84e-20201222 OPENFOAM=2012
Arch   : "LSB;label=32;scalar=64"
Exec   : simpleFoam -parallel
Date   : Apr 17 2022
Time   : 21:29:15
Host   : DESKTOP-OGTHBU9
PID    : 10228
I/O    : uncollated
Case   : C:/Users/ZEEMAR~1/AppData/Local/Temp/case
nProcs : 4
Hosts  :
(
    (DESKTOP-OGTHBU9 4)
)
Pstream initialized with:
    floatTransfer      : 0
    nProcsSimpleSum    : 0
    commsType          : nonBlocking
    polling iterations : 0
trapFpe: Floating point exception trapping enabled (FOAM_SIGFPE).
fileModificationChecking : Monitoring run-time modified files using timeStampMaster (fileModificationSkew 5, maxFileModificationPolls 20)
allowSystemOperations : Allowing user-supplied system call operations

// * * * * * * * * * * * * * * * * * * * * * * * * * * * * * * * * * * * * * //
Create time

Create mesh for time = 0


SIMPLE: convergence criteria
    field p	 tolerance 0.001
    field U	 tolerance 0.001
    field "(k|epsilon|omega|f|v2|nuTilda)"	 tolerance 0.001

Reading field p

Reading field U

Reading/calculating face flux field phi

Selecting incompressible transport model Newtonian
Selecting turbulence model type RAS
Selecting RAS turbulence model kOmegaSST
Selecting patchDistMethod meshWave
RAS
{
    RASModel        kOmegaSST;
    turbulence      on;
    printCoeffs     on;
    alphaK1         0.85;
    alphaK2         1;
    alphaOmega1     0.5;
    alphaOmega2     0.856;
    gamma1          0.55555556;
    gamma2          0.44;
    beta1           0.075;
    beta2           0.0828;
    betaStar        0.09;
    a1              0.31;
    b1              1;
    c1              10;
    F3              false;
    decayControl    false;
    kInf            0;
    omegaInf        0;
}

No MRF models present

No finite volume options present

Starting time loop

forces forces:
    rho: rhoInf
    Freestream density (rhoInf) set to 1
    Not including porosity effects
    Fields will be written

Time = 1

smoothSolver:  Solving for Ux, Initial residual = 0.030719124, Final residual = 0.00062226048, No Iterations 2
smoothSolver:  Solving for Uy, Initial residual = 0.113481, Final residual = 0.011046946, No Iterations 1
smoothSolver:  Solving for Uz, Initial residual = 0.11981482, Final residual = 0.010044301, No Iterations 1
GAMG:  Solving for p, Initial residual = 0.57084191, Final residual = 0.00228156, No Iterations 4
GAMG:  Solving for p, Initial residual = 0.028757894, Final residual = 0.00017762541, No Iterations 4
GAMG:  Solving for p, Initial residual = 0.0034642851, Final residual = 2.851036e-05, No Iterations 4
GAMG:  Solving for p, Initial residual = 0.00067088033, Final residual = 5.6971852e-06, No Iterations 4
GAMG:  Solving for p, Initial residual = 0.00017267538, Final residual = 1.2794933e-06, No Iterations 4
GAMG:  Solving for p, Initial residual = 4.5776539e-05, Final residual = 3.0686616e-07, No Iterations 4
time step continuity errors : sum local = 1.3069863e-07, global = 4.4885126e-09, cumulative = 4.4885126e-09
smoothSolver:  Solving for omega, Initial residual = 1, Final residual = 0.056616859, No Iterations 3
smoothSolver:  Solving for k, Initial residual = 1, Final residual = 0.076506797, No Iterations 2
ExecutionTime = 2.987 s  ClockTime = 3 s

forces forces write:
    Sum of forces
        Total    : (0.069975273 3.1723427 -0.11020134)
        Pressure : (0.069629612 3.1700415 -0.10973205)
        Viscous  : (0.00034566128 0.0023011671 -0.00046928587)
    Sum of moments
        Total    : (-2.0220241 0.092416894 0.48081539)
        Pressure : (-2.0207567 0.0922469 0.47992378)
        Viscous  : (-0.0012673286 0.00016999362 0.00089160543)


Time = 2

smoothSolver:  Solving for Ux, Initial residual = 0.016792857, Final residual = 0.0016711648, No Iterations 1
smoothSolver:  Solving for Uy, Initial residual = 0.053494735, Final residual = 0.0047722275, No Iterations 1
smoothSolver:  Solving for Uz, Initial residual = 0.063472472, Final residual = 0.0053614242, No Iterations 1
GAMG:  Solving for p, Initial residual = 0.45762715, Final residual = 0.001968091, No Iterations 4
GAMG:  Solving for p, Initial residual = 0.02456309, Final residual = 0.00014259538, No Iterations 4
GAMG:  Solving for p, Initial residual = 0.0031523935, Final residual = 2.5449768e-05, No Iterations 4
GAMG:  Solving for p, Initial residual = 0.00064289583, Final residual = 5.266352e-06, No Iterations 4
GAMG:  Solving for p, Initial residual = 0.00016864721, Final residual = 1.2548956e-06, No Iterations 4
GAMG:  Solving for p, Initial residual = 4.666754e-05, Final residual = 2.9407595e-07, No Iterations 4
time step continuity errors : sum local = 1.3938605e-07, global = -9.7368857e-09, cumulative = -5.2483731e-09
smoothSolver:  Solving for omega, Initial residual = 0.49680158, Final residual = 0.029468948, No Iterations 3
smoothSolver:  Solving for k, Initial residual = 0.23701608, Final residual = 0.021348164, No Iterations 2
ExecutionTime = 5.074 s  ClockTime = 5 s

forces forces write:
    Sum of forces
        Total    : (0.10420754 4.1433108 -0.14584324)
        Pressure : (0.1035197 4.1394601 -0.14518191)
        Viscous  : (0.00068784238 0.0038507047 -0.00066132513)
    Sum of moments
        Total    : (-2.6468861 0.12601328 0.58150551)
        Pressure : (-2.6447752 0.12559548 0.5803721)
        Viscous  : (-0.0021108125 0.00041779369 0.0011334089)


Time = 3

smoothSolver:  Solving for Ux, Initial residual = 0.017040647, Final residual = 0.00030199533, No Iterations 2
smoothSolver:  Solving for Uy, Initial residual = 0.037921505, Final residual = 0.00074255067, No Iterations 2
smoothSolver:  Solving for Uz, Initial residual = 0.045164133, Final residual = 0.00072683844, No Iterations 2
GAMG:  Solving for p, Initial residual = 0.26912225, Final residual = 0.0023022204, No Iterations 3
GAMG:  Solving for p, Initial residual = 0.017200013, Final residual = 9.2889749e-05, No Iterations 4
GAMG:  Solving for p, Initial residual = 0.0022832777, Final residual = 1.3847386e-05, No Iterations 4
GAMG:  Solving for p, Initial residual = 0.0004800997, Final residual = 2.9703269e-06, No Iterations 4
GAMG:  Solving for p, Initial residual = 0.00012139889, Final residual = 8.1279243e-07, No Iterations 4
GAMG:  Solving for p, Initial residual = 3.4908173e-05, Final residual = 2.2501921e-07, No Iterations 4
time step continuity errors : sum local = 8.6965251e-08, global = -7.0339796e-09, cumulative = -1.2282353e-08
smoothSolver:  Solving for omega, Initial residual = 0.3389785, Final residual = 0.020918665, No Iterations 3
smoothSolver:  Solving for k, Initial residual = 0.1329743, Final residual = 0.0063512167, No Iterations 3
ExecutionTime = 6.782 s  ClockTime = 6 s

forces forces write:
    Sum of forces
        Total    : (0.10910009 4.4425482 -0.15692468)
        Pressure : (0.10799258 4.4385103 -0.15636912)
        Viscous  : (0.0011075033 0.0040378928 -0.00055555589)
    Sum of moments
        Total    : (-2.8350107 0.13356834 0.58892844)
        Pressure : (-2.8328468 0.13290486 0.58764821)
        Viscous  : (-0.0021638566 0.00066348097 0.0012802386)


Time = 4

smoothSolver:  Solving for Ux, Initial residual = 0.017643603, Final residual = 0.00037456579, No Iterations 2
smoothSolver:  Solving for Uy, Initial residual = 0.038092607, Final residual = 0.001043994, No Iterations 2
smoothSolver:  Solving for Uz, Initial residual = 0.040084607, Final residual = 0.00084195654, No Iterations 2
GAMG:  Solving for p, Initial residual = 0.25114056, Final residual = 0.0023257494, No Iterations 3
GAMG:  Solving for p, Initial residual = 0.020707711, Final residual = 0.00015104725, No Iterations 4
GAMG:  Solving for p, Initial residual = 0.0025141589, Final residual = 2.2640629e-05, No Iterations 4
GAMG:  Solving for p, Initial residual = 0.00048469667, Final residual = 4.4859633e-06, No Iterations 4
GAMG:  Solving for p, Initial residual = 0.00011877168, Final residual = 9.7635443e-07, No Iterations 4
GAMG:  Solving for p, Initial residual = 3.181114e-05, Final residual = 2.5902421e-07, No Iterations 4
time step continuity errors : sum local = 7.8641681e-08, global = 1.6985159e-09, cumulative = -1.0583837e-08
smoothSolver:  Solving for omega, Initial residual = 0.25290804, Final residual = 0.015925303, No Iterations 3
smoothSolver:  Solving for k, Initial residual = 0.091589599, Final residual = 0.0049252408, No Iterations 3
ExecutionTime = 9.41 s  ClockTime = 9 s

forces forces write:
    Sum of forces
        Total    : (0.059420869 4.069138 -0.15306085)
        Pressure : (0.058098824 4.0656671 -0.15269519)
        Viscous  : (0.0013220455 0.0034708435 -0.00036566416)
    Sum of moments
        Total    : (-2.5875919 0.10250168 0.48844699)
        Pressure : (-2.5858005 0.10173908 0.48710653)
        Viscous  : (-0.0017913809 0.00076259795 0.001340461)


Time = 5

smoothSolver:  Solving for Ux, Initial residual = 0.011982538, Final residual = 0.00023840756, No Iterations 2
smoothSolver:  Solving for Uy, Initial residual = 0.025129651, Final residual = 0.00063055788, No Iterations 2
smoothSolver:  Solving for Uz, Initial residual = 0.029450906, Final residual = 0.00060655805, No Iterations 2
GAMG:  Solving for p, Initial residual = 0.28095999, Final residual = 0.0011786372, No Iterations 4
GAMG:  Solving for p, Initial residual = 0.023723252, Final residual = 0.0001262593, No Iterations 4
GAMG:  Solving for p, Initial residual = 0.0027161041, Final residual = 2.2011705e-05, No Iterations 4
GAMG:  Solving for p, Initial residual = 0.00051105142, Final residual = 4.4334071e-06, No Iterations 4
GAMG:  Solving for p, Initial residual = 0.00012672455, Final residual = 1.0391319e-06, No Iterations 4
GAMG:  Solving for p, Initial residual = 3.4536341e-05, Final residual = 2.5152522e-07, No Iterations 4
time step continuity errors : sum local = 7.7308888e-08, global = 5.3733648e-09, cumulative = -5.210472e-09
smoothSolver:  Solving for omega, Initial residual = 0.19940344, Final residual = 0.012724211, No Iterations 3
smoothSolver:  Solving for k, Initial residual = 0.069688486, Final residual = 0.0040162952, No Iterations 3
ExecutionTime = 12.274 s  ClockTime = 12 s

forces forces write:
    Sum of forces
        Total    : (-0.0058517487 3.5375514 -0.14872207)
        Pressure : (-0.0073095808 3.5347852 -0.14851728)
        Viscous  : (0.0014578321 0.0027662 -0.00020478731)
    Sum of moments
        Total    : (-2.240705 0.060770286 0.38040879)
        Pressure : (-2.2393541 0.059946712 0.37904312)
        Viscous  : (-0.0013509247 0.00082357355 0.001365666)


Time = 6

smoothSolver:  Solving for Ux, Initial residual = 0.0083012831, Final residual = 0.00016975157, No Iterations 2
smoothSolver:  Solving for Uy, Initial residual = 0.017792025, Final residual = 0.0004032065, No Iterations 2
smoothSolver:  Solving for Uz, Initial residual = 0.025611869, Final residual = 0.00055772795, No Iterations 2
GAMG:  Solving for p, Initial residual = 0.23372238, Final residual = 0.00230545, No Iterations 3
GAMG:  Solving for p, Initial residual = 0.019636493, Final residual = 0.00010419029, No Iterations 4
GAMG:  Solving for p, Initial residual = 0.0023749367, Final residual = 1.7159819e-05, No Iterations 4
GAMG:  Solving for p, Initial residual = 0.0004740424, Final residual = 3.4450301e-06, No Iterations 4
GAMG:  Solving for p, Initial residual = 0.00011910317, Final residual = 9.0543803e-07, No Iterations 4
GAMG:  Solving for p, Initial residual = 3.2959991e-05, Final residual = 2.1610157e-07, No Iterations 4
time step continuity errors : sum local = 6.6524245e-08, global = 4.4021816e-09, cumulative = -8.0829046e-10
smoothSolver:  Solving for omega, Initial residual = 0.16317894, Final residual = 0.010511259, No Iterations 3
smoothSolver:  Solving for k, Initial residual = 0.056320785, Final residual = 0.0033873042, No Iterations 3
ExecutionTime = 13.937 s  ClockTime = 14 s

forces forces write:
    Sum of forces
        Total    : (-0.030929162 3.276816 -0.14591434)
        Pressure : (-0.0325618 3.2745523 -0.14581447)
        Viscous  : (0.0016326384 0.0022637739 -9.987473e-05)
    Sum of moments
        Total    : (-2.0723453 0.043597263 0.35602411)
        Pressure : (-2.0713022 0.042679529 0.35463098)
        Viscous  : (-0.0010431258 0.00091773368 0.0013931235)


Time = 7

smoothSolver:  Solving for Ux, Initial residual = 0.0091824515, Final residual = 0.00022296084, No Iterations 2
smoothSolver:  Solving for Uy, Initial residual = 0.02168627, Final residual = 0.00064788753, No Iterations 2
smoothSolver:  Solving for Uz, Initial residual = 0.027166723, Final residual = 0.00068140647, No Iterations 2
GAMG:  Solving for p, Initial residual = 0.20352668, Final residual = 0.0015849386, No Iterations 3
GAMG:  Solving for p, Initial residual = 0.015097593, Final residual = 6.8246011e-05, No Iterations 4
GAMG:  Solving for p, Initial residual = 0.0018677219, Final residual = 1.0574272e-05, No Iterations 4
GAMG:  Solving for p, Initial residual = 0.00038344137, Final residual = 2.1829096e-06, No Iterations 4
GAMG:  Solving for p, Initial residual = 9.6147491e-05, Final residual = 5.7445186e-07, No Iterations 4
GAMG:  Solving for p, Initial residual = 2.6649492e-05, Final residual = 1.4449029e-07, No Iterations 4
time step continuity errors : sum local = 4.3874884e-08, global = 8.9521478e-10, cumulative = 8.6924318e-11
smoothSolver:  Solving for omega, Initial residual = 0.13712473, Final residual = 0.0088954212, No Iterations 3
smoothSolver:  Solving for k, Initial residual = 0.047331623, Final residual = 0.0029260877, No Iterations 3
ExecutionTime = 15.385 s  ClockTime = 15 s

forces forces write:
    Sum of forces
        Total    : (0.0014993683 3.3709799 -0.14074943)
        Pressure : (-0.00038257848 3.3689523 -0.14070631)
        Viscous  : (0.0018819468 0.002027564 -4.3120094e-05)
    Sum of moments
        Total    : (-2.1360729 0.06085616 0.42288305)
        Pressure : (-2.1351684 0.05979422 0.42143977)
        Viscous  : (-0.00090451171 0.001061939 0.0014432771)


Time = 8

smoothSolver:  Solving for Ux, Initial residual = 0.0083883187, Final residual = 0.00019597513, No Iterations 2
smoothSolver:  Solving for Uy, Initial residual = 0.016169743, Final residual = 0.00049070673, No Iterations 2
smoothSolver:  Solving for Uz, Initial residual = 0.022708658, Final residual = 0.00057428274, No Iterations 2
GAMG:  Solving for p, Initial residual = 0.19983542, Final residual = 0.00076964107, No Iterations 4
GAMG:  Solving for p, Initial residual = 0.014951332, Final residual = 0.00014064804, No Iterations 3
GAMG:  Solving for p, Initial residual = 0.0017510691, Final residual = 1.7421857e-05, No Iterations 4
GAMG:  Solving for p, Initial residual = 0.00034209028, Final residual = 2.6972045e-06, No Iterations 4
GAMG:  Solving for p, Initial residual = 8.3374461e-05, Final residual = 5.3464995e-07, No Iterations 4
GAMG:  Solving for p, Initial residual = 2.2900853e-05, Final residual = 2.1850471e-07, No Iterations 3
time step continuity errors : sum local = 6.7397112e-08, global = -5.0476239e-09, cumulative = -4.9606996e-09
smoothSolver:  Solving for omega, Initial residual = 0.11755923, Final residual = 0.0076683567, No Iterations 3
smoothSolver:  Solving for k, Initial residual = 0.040872915, Final residual = 0.0025735458, No Iterations 3
ExecutionTime = 17.634 s  ClockTime = 17 s

forces forces write:
    Sum of forces
        Total    : (0.05950561 3.6311431 -0.13251151)
        Pressure : (0.057358087 3.6291483 -0.1324951)
        Viscous  : (0.0021475232 0.0019948235 -1.6407224e-05)
    Sum of moments
        Total    : (-2.3072418 0.09325453 0.51369501)
        Pressure : (-2.3063498 0.092035052 0.51218042)
        Viscous  : (-0.00089195783 0.0012194784 0.0015145947)


Time = 9

smoothSolver:  Solving for Ux, Initial residual = 0.0068693492, Final residual = 0.00015095976, No Iterations 2
smoothSolver:  Solving for Uy, Initial residual = 0.0094365858, Final residual = 0.00024751699, No Iterations 2
smoothSolver:  Solving for Uz, Initial residual = 0.01745561, Final residual = 0.00041600159, No Iterations 2
GAMG:  Solving for p, Initial residual = 0.17017199, Final residual = 0.0016971008, No Iterations 3
GAMG:  Solving for p, Initial residual = 0.013609638, Final residual = 6.893379e-05, No Iterations 4
GAMG:  Solving for p, Initial residual = 0.0015961577, Final residual = 1.1774306e-05, No Iterations 4
GAMG:  Solving for p, Initial residual = 0.00031558997, Final residual = 2.3595611e-06, No Iterations 4
GAMG:  Solving for p, Initial residual = 7.8748195e-05, Final residual = 5.7073868e-07, No Iterations 4
GAMG:  Solving for p, Initial residual = 2.1615915e-05, Final residual = 1.4244707e-07, No Iterations 4
time step continuity errors : sum local = 4.2476855e-08, global = -3.1619037e-09, cumulative = -8.1226033e-09
smoothSolver:  Solving for omega, Initial residual = 0.10236294, Final residual = 0.0067070863, No Iterations 3
smoothSolver:  Solving for k, Initial residual = 0.03600629, Final residual = 0.0022959211, No Iterations 3
ExecutionTime = 20.616 s  ClockTime = 20 s

forces forces write:
    Sum of forces
        Total    : (0.096907015 3.8204379 -0.12551531)
        Pressure : (0.094553043 3.8183632 -0.12551864)
        Viscous  : (0.0023539716 0.0020747014 3.3257257e-06)
    Sum of moments
        Total    : (-2.4307625 0.1140474 0.55447922)
        Pressure : (-2.4298167 0.11270249 0.55288603)
        Viscous  : (-0.00094586022 0.0013449148 0.0015931858)


Time = 10

smoothSolver:  Solving for Ux, Initial residual = 0.0068515076, Final residual = 0.00016474782, No Iterations 2
smoothSolver:  Solving for Uy, Initial residual = 0.011603674, Final residual = 0.00036334606, No Iterations 2
smoothSolver:  Solving for Uz, Initial residual = 0.016813279, Final residual = 0.00041670149, No Iterations 2
GAMG:  Solving for p, Initial residual = 0.14712254, Final residual = 0.0010481053, No Iterations 3
GAMG:  Solving for p, Initial residual = 0.010445895, Final residual = 0.00010309196, No Iterations 3
GAMG:  Solving for p, Initial residual = 0.0013786042, Final residual = 7.3280293e-06, No Iterations 4
GAMG:  Solving for p, Initial residual = 0.00027127389, Final residual = 1.4308762e-06, No Iterations 4
GAMG:  Solving for p, Initial residual = 6.8364779e-05, Final residual = 3.9489014e-07, No Iterations 4
GAMG:  Solving for p, Initial residual = 1.9043351e-05, Final residual = 1.1224061e-07, No Iterations 4
time step continuity errors : sum local = 3.1714272e-08, global = -1.8531766e-09, cumulative = -9.9757799e-09
smoothSolver:  Solving for omega, Initial residual = 0.090244238, Final residual = 0.0059349702, No Iterations 3
smoothSolver:  Solving for k, Initial residual = 0.032205675, Final residual = 0.0020719635, No Iterations 3
ExecutionTime = 22.148 s  ClockTime = 22 s

forces forces write:
    Sum of forces
        Total    : (0.091907536 3.8343923 -0.12444339)
        Pressure : (0.08943047 3.8322013 -0.1244767)
        Viscous  : (0.0024770658 0.0021910166 3.3307478e-05)
    Sum of moments
        Total    : (-2.4385611 0.11133671 0.52384057)
        Pressure : (-2.4375442 0.1099139 0.52217559)
        Viscous  : (-0.0010168754 0.0014228192 0.0016649788)


Time = 11

smoothSolver:  Solving for Ux, Initial residual = 0.0061504516, Final residual = 0.00015565092, No Iterations 2
smoothSolver:  Solving for Uy, Initial residual = 0.011604089, Final residual = 0.00036619999, No Iterations 2
smoothSolver:  Solving for Uz, Initial residual = 0.016186955, Final residual = 0.00040987413, No Iterations 2
GAMG:  Solving for p, Initial residual = 0.14576368, Final residual = 0.0014005834, No Iterations 3
GAMG:  Solving for p, Initial residual = 0.011637554, Final residual = 8.0457494e-05, No Iterations 4
GAMG:  Solving for p, Initial residual = 0.0013684984, Final residual = 1.2375796e-05, No Iterations 4
GAMG:  Solving for p, Initial residual = 0.00026870818, Final residual = 2.3440892e-06, No Iterations 4
GAMG:  Solving for p, Initial residual = 6.3377705e-05, Final residual = 4.9646737e-07, No Iterations 4
GAMG:  Solving for p, Initial residual = 1.7060497e-05, Final residual = 1.2030285e-07, No Iterations 4
time step continuity errors : sum local = 3.3575953e-08, global = 2.3052197e-09, cumulative = -7.6705601e-09
smoothSolver:  Solving for omega, Initial residual = 0.080377538, Final residual = 0.0053023582, No Iterations 3
smoothSolver:  Solving for k, Initial residual = 0.029161764, Final residual = 0.0018879351, No Iterations 3
ExecutionTime = 23.331 s  ClockTime = 23 s

forces forces write:
    Sum of forces
        Total    : (0.057911026 3.7277176 -0.12962609)
        Pressure : (0.055358809 3.7254297 -0.12970787)
        Viscous  : (0.0025522174 0.0022879398 8.1775139e-05)
    Sum of moments
        Total    : (-2.3678698 0.092848989 0.45962178)
        Pressure : (-2.3667993 0.091377187 0.45789612)
        Viscous  : (-0.0010704892 0.0014718016 0.0017256518)


Time = 12

smoothSolver:  Solving for Ux, Initial residual = 0.005155611, Final residual = 0.00013244283, No Iterations 2
smoothSolver:  Solving for Uy, Initial residual = 0.0088096434, Final residual = 0.00024439746, No Iterations 2
smoothSolver:  Solving for Uz, Initial residual = 0.01514599, Final residual = 0.00038628767, No Iterations 2
GAMG:  Solving for p, Initial residual = 0.13302174, Final residual = 0.0012897536, No Iterations 3
GAMG:  Solving for p, Initial residual = 0.010958777, Final residual = 6.0120149e-05, No Iterations 4
GAMG:  Solving for p, Initial residual = 0.0012388791, Final residual = 8.9438785e-06, No Iterations 4
GAMG:  Solving for p, Initial residual = 0.00023557393, Final residual = 1.5723442e-06, No Iterations 4
GAMG:  Solving for p, Initial residual = 5.3941596e-05, Final residual = 3.3424729e-07, No Iterations 4
GAMG:  Solving for p, Initial residual = 1.4311713e-05, Final residual = 7.7154374e-08, No Iterations 4
time step continuity errors : sum local = 2.1592622e-08, global = 1.5588756e-09, cumulative = -6.1116846e-09
smoothSolver:  Solving for omega, Initial residual = 0.072208449, Final residual = 0.0047756739, No Iterations 3
smoothSolver:  Solving for k, Initial residual = 0.026664275, Final residual = 0.0017338762, No Iterations 3
ExecutionTime = 24.682 s  ClockTime = 24 s

forces forces write:
    Sum of forces
        Total    : (0.02563315 3.6186498 -0.13650687)
        Pressure : (0.022999684 3.6163129 -0.13664947)
        Viscous  : (0.0026334661 0.0023369164 0.00014260045)
    Sum of moments
        Total    : (-2.297244 0.075437221 0.41703976)
        Pressure : (-2.2961533 0.07391542 0.41526221)
        Viscous  : (-0.0010906374 0.0015218011 0.0017775464)


Time = 13

smoothSolver:  Solving for Ux, Initial residual = 0.0050314092, Final residual = 0.00013068005, No Iterations 2
smoothSolver:  Solving for Uy, Initial residual = 0.0083285915, Final residual = 0.00024265018, No Iterations 2
smoothSolver:  Solving for Uz, Initial residual = 0.015239393, Final residual = 0.00040903394, No Iterations 2
GAMG:  Solving for p, Initial residual = 0.11549134, Final residual = 0.0008595741, No Iterations 3
GAMG:  Solving for p, Initial residual = 0.0084302672, Final residual = 7.4159997e-05, No Iterations 3
GAMG:  Solving for p, Initial residual = 0.00094924034, Final residual = 4.9119965e-06, No Iterations 4
GAMG:  Solving for p, Initial residual = 0.00018094216, Final residual = 1.5343135e-06, No Iterations 3
GAMG:  Solving for p, Initial residual = 4.1777163e-05, Final residual = 2.4494199e-07, No Iterations 4
GAMG:  Solving for p, Initial residual = 1.1167248e-05, Final residual = 1.0182996e-07, No Iterations 3
time step continuity errors : sum local = 2.8475088e-08, global = 2.2229145e-09, cumulative = -3.88877e-09
smoothSolver:  Solving for omega, Initial residual = 0.065350043, Final residual = 0.0043313859, No Iterations 3
smoothSolver:  Solving for k, Initial residual = 0.024581201, Final residual = 0.001603291, No Iterations 3
ExecutionTime = 25.982 s  ClockTime = 26 s

forces forces write:
    Sum of forces
        Total    : (0.016821156 3.5850718 -0.13971896)
        Pressure : (0.014065329 3.582744 -0.13992244)
        Viscous  : (0.0027558266 0.0023278819 0.00020348747)
    Sum of moments
        Total    : (-2.277767 0.070589141 0.42316271)
        Pressure : (-2.2766956 0.068992878 0.42133874)
        Viscous  : (-0.0010713391 0.0015962626 0.0018239679)


Time = 14

smoothSolver:  Solving for Ux, Initial residual = 0.0051784889, Final residual = 0.00013641187, No Iterations 2
smoothSolver:  Solving for Uy, Initial residual = 0.007675657, Final residual = 0.00023941215, No Iterations 2
smoothSolver:  Solving for Uz, Initial residual = 0.01455647, Final residual = 0.00040696991, No Iterations 2
GAMG:  Solving for p, Initial residual = 0.11083203, Final residual = 0.00089419523, No Iterations 3
GAMG:  Solving for p, Initial residual = 0.0073349352, Final residual = 4.6058959e-05, No Iterations 4
GAMG:  Solving for p, Initial residual = 0.00082334151, Final residual = 6.587227e-06, No Iterations 4
GAMG:  Solving for p, Initial residual = 0.00016181938, Final residual = 1.1773186e-06, No Iterations 4
GAMG:  Solving for p, Initial residual = 3.7946922e-05, Final residual = 2.6059368e-07, No Iterations 4
GAMG:  Solving for p, Initial residual = 1.0533568e-05, Final residual = 6.000667e-08, No Iterations 4
time step continuity errors : sum local = 1.6749805e-08, global = -6.220017e-13, cumulative = -3.8893921e-09
smoothSolver:  Solving for omega, Initial residual = 0.059521832, Final residual = 0.0039521101, No Iterations 3
smoothSolver:  Solving for k, Initial residual = 0.022817593, Final residual = 0.0014910776, No Iterations 3
ExecutionTime = 27.126 s  ClockTime = 27 s

forces forces write:
    Sum of forces
        Total    : (0.031445015 3.6252949 -0.13708763)
        Pressure : (0.028525438 3.6230294 -0.1373435)
        Viscous  : (0.0029195771 0.0022655644 0.00025586936)
    Sum of moments
        Total    : (-2.3070619 0.077879826 0.46309071)
        Pressure : (-2.3060465 0.076179049 0.46122628)
        Viscous  : (-0.001015382 0.0017007764 0.0018644321)


Time = 15

smoothSolver:  Solving for Ux, Initial residual = 0.0048836827, Final residual = 0.00012826793, No Iterations 2
smoothSolver:  Solving for Uy, Initial residual = 0.0059958308, Final residual = 0.00017819651, No Iterations 2
smoothSolver:  Solving for Uz, Initial residual = 0.012949326, Final residual = 0.00036948617, No Iterations 2
GAMG:  Solving for p, Initial residual = 0.10364472, Final residual = 0.00095762504, No Iterations 3
GAMG:  Solving for p, Initial residual = 0.0074460523, Final residual = 4.8929652e-05, No Iterations 4
GAMG:  Solving for p, Initial residual = 0.00084137733, Final residual = 7.418013e-06, No Iterations 4
GAMG:  Solving for p, Initial residual = 0.00016730612, Final residual = 1.2640731e-06, No Iterations 4
GAMG:  Solving for p, Initial residual = 3.9309426e-05, Final residual = 2.5647338e-07, No Iterations 4
GAMG:  Solving for p, Initial residual = 1.1170711e-05, Final residual = 1.0706965e-07, No Iterations 3
time step continuity errors : sum local = 2.9552363e-08, global = -2.2563917e-09, cumulative = -6.1457838e-09
smoothSolver:  Solving for omega, Initial residual = 0.054515948, Final residual = 0.0036251889, No Iterations 3
smoothSolver:  Solving for k, Initial residual = 0.021306002, Final residual = 0.0013937682, No Iterations 3
ExecutionTime = 28.619 s  ClockTime = 28 s

forces forces write:
    Sum of forces
        Total    : (0.053921833 3.687601 -0.13077935)
        Pressure : (0.050815904 3.6854361 -0.13107893)
        Viscous  : (0.0031059289 0.0021649779 0.00029958294)
    Sum of moments
        Total    : (-2.3497128 0.088995582 0.50107985)
        Pressure : (-2.3487821 0.087167023 0.49918091)
        Viscous  : (-0.00093069581 0.0018285592 0.0018989416)


Time = 16

smoothSolver:  Solving for Ux, Initial residual = 0.0045389604, Final residual = 0.00012094762, No Iterations 2
smoothSolver:  Solving for Uy, Initial residual = 0.005909577, Final residual = 0.00017598049, No Iterations 2
smoothSolver:  Solving for Uz, Initial residual = 0.011974724, Final residual = 0.0003481198, No Iterations 2
GAMG:  Solving for p, Initial residual = 0.092341322, Final residual = 0.00072591834, No Iterations 3
GAMG:  Solving for p, Initial residual = 0.0065965629, Final residual = 2.6687746e-05, No Iterations 4
GAMG:  Solving for p, Initial residual = 0.00074454334, Final residual = 4.1809426e-06, No Iterations 4
GAMG:  Solving for p, Initial residual = 0.00015026776, Final residual = 8.2475051e-07, No Iterations 4
GAMG:  Solving for p, Initial residual = 3.52777e-05, Final residual = 3.5057619e-07, No Iterations 3
GAMG:  Solving for p, Initial residual = 9.82953e-06, Final residual = 6.650201e-08, No Iterations 4
time step continuity errors : sum local = 1.8013367e-08, global = -1.2472589e-09, cumulative = -7.3930426e-09
smoothSolver:  Solving for omega, Initial residual = 0.050175604, Final residual = 0.0033408534, No Iterations 3
smoothSolver:  Solving for k, Initial residual = 0.019998135, Final residual = 0.0013087415, No Iterations 3
ExecutionTime = 34.051 s  ClockTime = 34 s

forces forces write:
    Sum of forces
        Total    : (0.068024768 3.7235935 -0.12503894)
        Pressure : (0.064715622 3.7215571 -0.12538153)
        Viscous  : (0.0033091461 0.0020364128 0.00034259425)
    Sum of moments
        Total    : (-2.373209 0.095696599 0.51134864)
        Pressure : (-2.3723886 0.093715673 0.50941601)
        Viscous  : (-0.00082037917 0.0019809262 0.0019326311)


Time = 17

smoothSolver:  Solving for Ux, Initial residual = 0.004233323, Final residual = 0.00011545619, No Iterations 2
smoothSolver:  Solving for Uy, Initial residual = 0.0061626593, Final residual = 0.00019398711, No Iterations 2
smoothSolver:  Solving for Uz, Initial residual = 0.01176106, Final residual = 0.00034972522, No Iterations 2
GAMG:  Solving for p, Initial residual = 0.085591315, Final residual = 0.00058184472, No Iterations 3
GAMG:  Solving for p, Initial residual = 0.0058165492, Final residual = 4.925974e-05, No Iterations 3
GAMG:  Solving for p, Initial residual = 0.00069300728, Final residual = 3.0716336e-06, No Iterations 4
GAMG:  Solving for p, Initial residual = 0.00013758341, Final residual = 1.053863e-06, No Iterations 3
GAMG:  Solving for p, Initial residual = 3.2095033e-05, Final residual = 1.8193981e-07, No Iterations 4
GAMG:  Solving for p, Initial residual = 8.8086602e-06, Final residual = 8.266034e-08, No Iterations 3
time step continuity errors : sum local = 2.2148559e-08, global = -1.2663716e-09, cumulative = -8.6594142e-09
smoothSolver:  Solving for omega, Initial residual = 0.046381741, Final residual = 0.0030916379, No Iterations 3
smoothSolver:  Solving for k, Initial residual = 0.018856154, Final residual = 0.0012338385, No Iterations 3
ExecutionTime = 35.505 s  ClockTime = 35 s

forces forces write:
    Sum of forces
        Total    : (0.067979647 3.7198258 -0.12279042)
        Pressure : (0.064437114 3.7179459 -0.12318616)
        Viscous  : (0.0035425332 0.0018798817 0.00039573358)
    Sum of moments
        Total    : (-2.3693035 0.095353029 0.49418828)
        Pressure : (-2.3686187 0.093186338 0.49221544)
        Viscous  : (-0.00068474137 0.0021666917 0.0019728443)


Time = 18

smoothSolver:  Solving for Ux, Initial residual = 0.0039430225, Final residual = 0.0001111306, No Iterations 2
smoothSolver:  Solving for Uy, Initial residual = 0.0055051557, Final residual = 0.00017214331, No Iterations 2
smoothSolver:  Solving for Uz, Initial residual = 0.011509152, Final residual = 0.00035271163, No Iterations 2
GAMG:  Solving for p, Initial residual = 0.080871273, Final residual = 0.00059222362, No Iterations 3
GAMG:  Solving for p, Initial residual = 0.0054854464, Final residual = 2.8109154e-05, No Iterations 4
GAMG:  Solving for p, Initial residual = 0.00063214232, Final residual = 4.1942616e-06, No Iterations 4
GAMG:  Solving for p, Initial residual = 0.00012700822, Final residual = 7.7800752e-07, No Iterations 4
GAMG:  Solving for p, Initial residual = 3.0047658e-05, Final residual = 1.6538018e-07, No Iterations 4
GAMG:  Solving for p, Initial residual = 8.2727034e-06, Final residual = 7.6638192e-08, No Iterations 3
time step continuity errors : sum local = 2.0499086e-08, global = 1.415688e-09, cumulative = -7.2437263e-09
smoothSolver:  Solving for omega, Initial residual = 0.043041844, Final residual = 0.0028717011, No Iterations 3
smoothSolver:  Solving for k, Initial residual = 0.01785248, Final residual = 0.0011675603, No Iterations 3
ExecutionTime = 38.22 s  ClockTime = 38 s

forces forces write:
    Sum of forces
        Total    : (0.059124544 3.6942465 -0.12392451)
        Pressure : (0.055296 3.6925591 -0.12439225)
        Viscous  : (0.0038285439 0.0016873625 0.00046773859)
    Sum of moments
        Total    : (-2.3511767 0.090873436 0.46901424)
        Pressure : (-2.3506555 0.088478415 0.46698727)
        Viscous  : (-0.00052126512 0.0023950212 0.0020269696)


Time = 19

smoothSolver:  Solving for Ux, Initial residual = 0.0038125603, Final residual = 0.00011199385, No Iterations 2
smoothSolver:  Solving for Uy, Initial residual = 0.0046248754, Final residual = 0.00013603133, No Iterations 2
smoothSolver:  Solving for Uz, Initial residual = 0.011209203, Final residual = 0.00034944893, No Iterations 2
GAMG:  Solving for p, Initial residual = 0.074548247, Final residual = 0.00055077313, No Iterations 3
GAMG:  Solving for p, Initial residual = 0.0049499673, Final residual = 1.9685876e-05, No Iterations 4
GAMG:  Solving for p, Initial residual = 0.00055633194, Final residual = 5.0018566e-06, No Iterations 3
GAMG:  Solving for p, Initial residual = 0.0001117634, Final residual = 6.4271496e-07, No Iterations 4
GAMG:  Solving for p, Initial residual = 2.6416134e-05, Final residual = 2.6291095e-07, No Iterations 3
GAMG:  Solving for p, Initial residual = 7.2307936e-06, Final residual = 5.0110037e-08, No Iterations 4
time step continuity errors : sum local = 1.3388354e-08, global = 8.8603015e-10, cumulative = -6.3576961e-09
smoothSolver:  Solving for omega, Initial residual = 0.04008339, Final residual = 0.0026764269, No Iterations 3
smoothSolver:  Solving for k, Initial residual = 0.016963314, Final residual = 0.0011085277, No Iterations 3
ExecutionTime = 40.594 s  ClockTime = 40 s

forces forces write:
    Sum of forces
        Total    : (0.05087075 3.6733647 -0.12612496)
        Pressure : (0.046694247 3.6719073 -0.12668305)
        Viscous  : (0.0041765038 0.0014573795 0.00055809132)
    Sum of moments
        Total    : (-2.337269 0.086923008 0.45586556)
        Pressure : (-2.3369329 0.084263919 0.45376925)
        Viscous  : (-0.0003361258 0.0026590886 0.0020963096)


Time = 20

smoothSolver:  Solving for Ux, Initial residual = 0.0038082843, Final residual = 0.00011384112, No Iterations 2
smoothSolver:  Solving for Uy, Initial residual = 0.0041584382, Final residual = 0.00012537596, No Iterations 2
smoothSolver:  Solving for Uz, Initial residual = 0.010742038, Final residual = 0.00033235441, No Iterations 2
GAMG:  Solving for p, Initial residual = 0.068975307, Final residual = 0.00048104488, No Iterations 3
GAMG:  Solving for p, Initial residual = 0.0043420396, Final residual = 4.3049602e-05, No Iterations 3
GAMG:  Solving for p, Initial residual = 0.00050984297, Final residual = 4.00823e-06, No Iterations 4
GAMG:  Solving for p, Initial residual = 0.00010104421, Final residual = 6.7645371e-07, No Iterations 4
GAMG:  Solving for p, Initial residual = 2.3756695e-05, Final residual = 1.4316963e-07, No Iterations 4
GAMG:  Solving for p, Initial residual = 6.3395248e-06, Final residual = 3.4653914e-08, No Iterations 4
time step continuity errors : sum local = 9.2270702e-09, global = -1.7177801e-10, cumulative = -6.5294741e-09
smoothSolver:  Solving for omega, Initial residual = 0.03744642, Final residual = 0.0025019942, No Iterations 3
smoothSolver:  Solving for k, Initial residual = 0.016171044, Final residual = 0.0010556413, No Iterations 3
ExecutionTime = 42.352 s  ClockTime = 42 s

forces forces write:
    Sum of forces
        Total    : (0.049297704 3.6709589 -0.12684035)
        Pressure : (0.044676959 3.6697923 -0.12751443)
        Viscous  : (0.0046207444 0.0011666071 0.00067407143)
    Sum of moments
        Total    : (-2.3366883 0.086272278 0.46104524)
        Pressure : (-2.3365741 0.0832905 0.45885911)
        Viscous  : (-0.00011419378 0.0029817777 0.0021861314)


Time = 21

smoothSolver:  Solving for Ux, Initial residual = 0.0037395806, Final residual = 0.0001124599, No Iterations 2
smoothSolver:  Solving for Uy, Initial residual = 0.0038165357, Final residual = 0.00011741999, No Iterations 2
smoothSolver:  Solving for Uz, Initial residual = 0.010117745, Final residual = 0.00030768933, No Iterations 2
GAMG:  Solving for p, Initial residual = 0.065081547, Final residual = 0.00043039721, No Iterations 3
GAMG:  Solving for p, Initial residual = 0.0039956771, Final residual = 2.2080358e-05, No Iterations 4
GAMG:  Solving for p, Initial residual = 0.00047047917, Final residual = 3.2876203e-06, No Iterations 4
GAMG:  Solving for p, Initial residual = 9.4590707e-05, Final residual = 5.7528453e-07, No Iterations 4
GAMG:  Solving for p, Initial residual = 2.2634091e-05, Final residual = 2.2313174e-07, No Iterations 3
GAMG:  Solving for p, Initial residual = 6.1170434e-06, Final residual = 4.097987e-08, No Iterations 4
time step continuity errors : sum local = 1.0838839e-08, global = -7.8231062e-10, cumulative = -7.3117847e-09
smoothSolver:  Solving for omega, Initial residual = 0.035083323, Final residual = 0.002345407, No Iterations 3
smoothSolver:  Solving for k, Initial residual = 0.015461049, Final residual = 0.0010080935, No Iterations 3
ExecutionTime = 43.673 s  ClockTime = 43 s

forces forces write:
    Sum of forces
        Total    : (0.054274636 3.6834471 -0.12512129)
        Pressure : (0.04913969 3.6826218 -0.12592907)
        Viscous  : (0.0051349453 0.0008253159 0.00080778065)
    Sum of moments
        Total    : (-2.346249 0.08859141 0.47657827)
        Pressure : (-2.3463795 0.085262207 0.47428833)
        Viscous  : (0.00013052364 0.0033292034 0.002289936)


Time = 22

smoothSolver:  Solving for Ux, Initial residual = 0.0035861668, Final residual = 0.00010802688, No Iterations 2
smoothSolver:  Solving for Uy, Initial residual = 0.0037200077, Final residual = 0.00011617941, No Iterations 2
smoothSolver:  Solving for Uz, Initial residual = 0.0097097291, Final residual = 0.00029163118, No Iterations 2
GAMG:  Solving for p, Initial residual = 0.060612583, Final residual = 0.00039820561, No Iterations 3
GAMG:  Solving for p, Initial residual = 0.0037615132, Final residual = 1.7671487e-05, No Iterations 4
GAMG:  Solving for p, Initial residual = 0.00044226441, Final residual = 2.8475409e-06, No Iterations 4
GAMG:  Solving for p, Initial residual = 9.1845392e-05, Final residual = 5.2786456e-07, No Iterations 4
GAMG:  Solving for p, Initial residual = 2.1697378e-05, Final residual = 1.1497925e-07, No Iterations 4
GAMG:  Solving for p, Initial residual = 5.9349688e-06, Final residual = 5.1865534e-08, No Iterations 3
time step continuity errors : sum local = 1.3591503e-08, global = -1.0588687e-09, cumulative = -8.3706535e-09
smoothSolver:  Solving for omega, Initial residual = 0.032956129, Final residual = 0.0022042746, No Iterations 3
smoothSolver:  Solving for k, Initial residual = 0.014822382, Final residual = 0.00096519832, No Iterations 3
ExecutionTime = 44.827 s  ClockTime = 44 s

forces forces write:
    Sum of forces
        Total    : (0.06166265 3.6986287 -0.12178311)
        Pressure : (0.055949393 3.6981928 -0.12274522)
        Viscous  : (0.0057132574 0.00043591193 0.00096211876)
    Sum of moments
        Total    : (-2.3569753 0.091807428 0.48981311)
        Pressure : (-2.3573678 0.088116964 0.48740898)
        Viscous  : (0.00039256765 0.0036904641 0.0024041279)


Time = 23

smoothSolver:  Solving for Ux, Initial residual = 0.0034087369, Final residual = 0.00010194342, No Iterations 2
smoothSolver:  Solving for Uy, Initial residual = 0.003730564, Final residual = 0.00011476974, No Iterations 2
smoothSolver:  Solving for Uz, Initial residual = 0.0094730719, Final residual = 0.00028272867, No Iterations 2
GAMG:  Solving for p, Initial residual = 0.056270566, Final residual = 0.00035923479, No Iterations 3
GAMG:  Solving for p, Initial residual = 0.0035481894, Final residual = 3.0571858e-05, No Iterations 3
GAMG:  Solving for p, Initial residual = 0.00043031171, Final residual = 2.4185951e-06, No Iterations 4
GAMG:  Solving for p, Initial residual = 9.1315865e-05, Final residual = 8.1318702e-07, No Iterations 3
GAMG:  Solving for p, Initial residual = 2.1868106e-05, Final residual = 1.4345664e-07, No Iterations 4
GAMG:  Solving for p, Initial residual = 6.1651088e-06, Final residual = 5.9848759e-08, No Iterations 3
time step continuity errors : sum local = 1.5553661e-08, global = -1.1065901e-09, cumulative = -9.4772436e-09
smoothSolver:  Solving for omega, Initial residual = 0.031032002, Final residual = 0.0020765114, No Iterations 3
smoothSolver:  Solving for k, Initial residual = 0.014245514, Final residual = 0.00092637021, No Iterations 3
ExecutionTime = 46.366 s  ClockTime = 46 s

forces forces write:
    Sum of forces
        Total    : (0.067223981 3.7067056 -0.11848457)
        Pressure : (0.060911642 3.7066893 -0.11961403)
        Viscous  : (0.0063123393 1.6276581e-05 0.0011294678)
    Sum of moments
        Total    : (-2.3620725 0.09401344 0.49321353)
        Pressure : (-2.3627286 0.089984026 0.49069103)
        Viscous  : (0.00065610873 0.0040294137 0.0025224985)


Time = 24

smoothSolver:  Solving for Ux, Initial residual = 0.0032684635, Final residual = 9.5864938e-05, No Iterations 2
smoothSolver:  Solving for Uy, Initial residual = 0.0035107564, Final residual = 0.00010702207, No Iterations 2
smoothSolver:  Solving for Uz, Initial residual = 0.009272007, Final residual = 0.00027661996, No Iterations 2
GAMG:  Solving for p, Initial residual = 0.052835792, Final residual = 0.00033054625, No Iterations 3
GAMG:  Solving for p, Initial residual = 0.0033812633, Final residual = 2.7298992e-05, No Iterations 3
GAMG:  Solving for p, Initial residual = 0.00042081972, Final residual = 1.9714654e-06, No Iterations 4
GAMG:  Solving for p, Initial residual = 9.1125614e-05, Final residual = 6.6075568e-07, No Iterations 3
GAMG:  Solving for p, Initial residual = 2.2374553e-05, Final residual = 2.1106898e-07, No Iterations 3
GAMG:  Solving for p, Initial residual = 6.3904352e-06, Final residual = 3.0182796e-08, No Iterations 4
time step continuity errors : sum local = 7.8040702e-09, global = 7.036557e-10, cumulative = -8.7735879e-09
smoothSolver:  Solving for omega, Initial residual = 0.029286831, Final residual = 0.0019604941, No Iterations 3
smoothSolver:  Solving for k, Initial residual = 0.013721856, Final residual = 0.00089111348, No Iterations 3
ExecutionTime = 47.532 s  ClockTime = 47 s

forces forces write:
    Sum of forces
        Total    : (0.069405469 3.7058702 -0.1165139)
        Pressure : (0.062472266 3.7063027 -0.11781832)
        Viscous  : (0.0069332034 -0.00043247802 0.001304425)
    Sum of moments
        Total    : (-2.360778 0.094685208 0.48802976)
        Pressure : (-2.3616927 0.09034502 0.48538738)
        Viscous  : (0.00091475674 0.0043401875 0.0026423714)


Time = 25

smoothSolver:  Solving for Ux, Initial residual = 0.003201516, Final residual = 9.1909947e-05, No Iterations 2
smoothSolver:  Solving for Uy, Initial residual = 0.003108922, Final residual = 9.3645821e-05, No Iterations 2
smoothSolver:  Solving for Uz, Initial residual = 0.0089847444, Final residual = 0.00026929231, No Iterations 2
GAMG:  Solving for p, Initial residual = 0.049871255, Final residual = 0.00028754637, No Iterations 3
GAMG:  Solving for p, Initial residual = 0.0032102213, Final residual = 2.1396378e-05, No Iterations 3
GAMG:  Solving for p, Initial residual = 0.00041030703, Final residual = 4.0826983e-06, No Iterations 3
GAMG:  Solving for p, Initial residual = 9.0053119e-05, Final residual = 4.9145624e-07, No Iterations 4
GAMG:  Solving for p, Initial residual = 2.1763948e-05, Final residual = 2.0213446e-07, No Iterations 3
GAMG:  Solving for p, Initial residual = 6.0944136e-06, Final residual = 3.7201673e-08, No Iterations 4
time step continuity errors : sum local = 9.5898134e-09, global = 7.46721e-10, cumulative = -8.0268669e-09
smoothSolver:  Solving for omega, Initial residual = 0.027697695, Final residual = 0.0018547342, No Iterations 3
smoothSolver:  Solving for k, Initial residual = 0.013245796, Final residual = 0.00085907567, No Iterations 3
ExecutionTime = 48.82 s  ClockTime = 48 s

forces forces write:
    Sum of forces
        Total    : (0.069402597 3.7004156 -0.1159214)
        Pressure : (0.061789956 3.7013654 -0.11741488)
        Viscous  : (0.0076126402 -0.00094981531 0.0014934795)
    Sum of moments
        Total    : (-2.3565911 0.094474278 0.48086222)
        Pressure : (-2.3577895 0.089820678 0.4780894)
        Viscous  : (0.0011983325 0.0046535993 0.0027728201)


Time = 26

smoothSolver:  Solving for Ux, Initial residual = 0.0031763806, Final residual = 9.054103e-05, No Iterations 2
smoothSolver:  Solving for Uy, Initial residual = 0.0027990898, Final residual = 8.3073825e-05, No Iterations 2
smoothSolver:  Solving for Uz, Initial residual = 0.0086519143, Final residual = 0.0002628546, No Iterations 2
GAMG:  Solving for p, Initial residual = 0.0466199, Final residual = 0.00026773664, No Iterations 3
GAMG:  Solving for p, Initial residual = 0.0029843662, Final residual = 1.7664254e-05, No Iterations 3
GAMG:  Solving for p, Initial residual = 0.00038660878, Final residual = 3.1027579e-06, No Iterations 3
GAMG:  Solving for p, Initial residual = 8.5150599e-05, Final residual = 7.4181784e-07, No Iterations 3
GAMG:  Solving for p, Initial residual = 2.108686e-05, Final residual = 2.0734475e-07, No Iterations 3
GAMG:  Solving for p, Initial residual = 5.8725381e-06, Final residual = 3.0073861e-08, No Iterations 4
time step continuity errors : sum local = 7.7308932e-09, global = 6.5835343e-10, cumulative = -7.3685135e-09
smoothSolver:  Solving for omega, Initial residual = 0.026245626, Final residual = 0.0017579967, No Iterations 3
smoothSolver:  Solving for k, Initial residual = 0.012812001, Final residual = 0.00082989802, No Iterations 3
ExecutionTime = 50.133 s  ClockTime = 50 s

forces forces write:
    Sum of forces
        Total    : (0.069350039 3.6956962 -0.1158712)
        Pressure : (0.061049176 3.6971958 -0.11753983)
        Viscous  : (0.0083008628 -0.0014995957 0.0016686217)
    Sum of moments
        Total    : (-2.3534719 0.094257532 0.47764697)
        Pressure : (-2.3549492 0.089331573 0.47474449)
        Viscous  : (0.0014772474 0.0049259591 0.0029024796)


Time = 27

smoothSolver:  Solving for Ux, Initial residual = 0.0031142897, Final residual = 8.9508158e-05, No Iterations 2
smoothSolver:  Solving for Uy, Initial residual = 0.0026920751, Final residual = 7.9807803e-05, No Iterations 2
smoothSolver:  Solving for Uz, Initial residual = 0.008344337, Final residual = 0.00025742123, No Iterations 2
GAMG:  Solving for p, Initial residual = 0.043846367, Final residual = 0.00025385978, No Iterations 3
GAMG:  Solving for p, Initial residual = 0.0027760358, Final residual = 2.4927873e-05, No Iterations 3
GAMG:  Solving for p, Initial residual = 0.00037539633, Final residual = 3.1611407e-06, No Iterations 4
GAMG:  Solving for p, Initial residual = 8.3133308e-05, Final residual = 6.0335127e-07, No Iterations 4
GAMG:  Solving for p, Initial residual = 2.0758296e-05, Final residual = 1.4173683e-07, No Iterations 4
GAMG:  Solving for p, Initial residual = 5.7888794e-06, Final residual = 3.4585097e-08, No Iterations 4
time step continuity errors : sum local = 8.855754e-09, global = -1.3922381e-11, cumulative = -7.3824359e-09
smoothSolver:  Solving for omega, Initial residual = 0.024913922, Final residual = 0.0016691848, No Iterations 3
smoothSolver:  Solving for k, Initial residual = 0.012414798, Final residual = 0.00080323415, No Iterations 3
ExecutionTime = 51.243 s  ClockTime = 51 s

forces forces write:
    Sum of forces
        Total    : (0.070799796 3.6943388 -0.11539088)
        Pressure : (0.061766222 3.6964472 -0.11722977)
        Viscous  : (0.009033574 -0.0021083552 0.001838893)
    Sum of moments
        Total    : (-2.3531073 0.094622745 0.48004362)
        Pressure : (-2.3548748 0.089440845 0.4770087)
        Viscous  : (0.0017674822 0.0051819001 0.0030349135)


Time = 28

smoothSolver:  Solving for Ux, Initial residual = 0.0030248139, Final residual = 8.7408391e-05, No Iterations 2
smoothSolver:  Solving for Uy, Initial residual = 0.0026672787, Final residual = 7.8982047e-05, No Iterations 2
smoothSolver:  Solving for Uz, Initial residual = 0.0081002693, Final residual = 0.00025349325, No Iterations 2
GAMG:  Solving for p, Initial residual = 0.04159313, Final residual = 0.00021963232, No Iterations 3
GAMG:  Solving for p, Initial residual = 0.0026011817, Final residual = 2.4309882e-05, No Iterations 3
GAMG:  Solving for p, Initial residual = 0.00035936221, Final residual = 3.1930341e-06, No Iterations 4
GAMG:  Solving for p, Initial residual = 7.9926896e-05, Final residual = 5.6005961e-07, No Iterations 4
GAMG:  Solving for p, Initial residual = 1.9907502e-05, Final residual = 1.3171219e-07, No Iterations 4
GAMG:  Solving for p, Initial residual = 5.5876922e-06, Final residual = 3.0141183e-08, No Iterations 4
time step continuity errors : sum local = 7.6772288e-09, global = -6.3040961e-10, cumulative = -8.0128455e-09
smoothSolver:  Solving for omega, Initial residual = 0.023688261, Final residual = 0.0015873375, No Iterations 3
smoothSolver:  Solving for k, Initial residual = 0.012050164, Final residual = 0.00077882907, No Iterations 3
ExecutionTime = 52.563 s  ClockTime = 52 s

forces forces write:
    Sum of forces
        Total    : (0.073811522 3.6957771 -0.11407379)
        Pressure : (0.064075997 3.6985047 -0.11606574)
        Viscous  : (0.0097355248 -0.0027276471 0.0019919517)
    Sum of moments
        Total    : (-2.3547302 0.095540259 0.48562308)
        Pressure : (-2.3567747 0.090145549 0.48246107)
        Viscous  : (0.0020445034 0.0053947098 0.0031620155)


Time = 29

smoothSolver:  Solving for Ux, Initial residual = 0.0029383934, Final residual = 8.4805261e-05, No Iterations 2
smoothSolver:  Solving for Uy, Initial residual = 0.0025933804, Final residual = 7.615181e-05, No Iterations 2
smoothSolver:  Solving for Uz, Initial residual = 0.0079067518, Final residual = 0.00025054745, No Iterations 2
GAMG:  Solving for p, Initial residual = 0.039290782, Final residual = 0.00018437975, No Iterations 3
GAMG:  Solving for p, Initial residual = 0.0024359306, Final residual = 1.7573422e-05, No Iterations 3
GAMG:  Solving for p, Initial residual = 0.00033094142, Final residual = 2.2861826e-06, No Iterations 4
GAMG:  Solving for p, Initial residual = 7.4634452e-05, Final residual = 4.4241711e-07, No Iterations 4
GAMG:  Solving for p, Initial residual = 1.851841e-05, Final residual = 1.1072597e-07, No Iterations 4
GAMG:  Solving for p, Initial residual = 5.27555e-06, Final residual = 5.0550999e-08, No Iterations 3
time step continuity errors : sum local = 1.27991e-08, global = -1.137164e-09, cumulative = -9.1500095e-09
smoothSolver:  Solving for omega, Initial residual = 0.022555613, Final residual = 0.001511651, No Iterations 3
smoothSolver:  Solving for k, Initial residual = 0.011714751, Final residual = 0.0007564584, No Iterations 3
ExecutionTime = 53.743 s  ClockTime = 53 s

forces forces write:
    Sum of forces
        Total    : (0.077434462 3.6977942 -0.11225505)
        Pressure : (0.0671031 3.7011253 -0.11436524)
        Viscous  : (0.010331362 -0.0033310526 0.0021101926)
    Sum of moments
        Total    : (-2.3565155 0.096646003 0.49065858)
        Pressure : (-2.3588146 0.091104087 0.48737683)
        Viscous  : (0.0022990606 0.0055419159 0.0032817486)


Time = 30

smoothSolver:  Solving for Ux, Initial residual = 0.0028742627, Final residual = 8.2319072e-05, No Iterations 2
smoothSolver:  Solving for Uy, Initial residual = 0.002456891, Final residual = 7.2328383e-05, No Iterations 2
smoothSolver:  Solving for Uz, Initial residual = 0.0077379908, Final residual = 0.00024703909, No Iterations 2
GAMG:  Solving for p, Initial residual = 0.037131145, Final residual = 0.00017611461, No Iterations 3
GAMG:  Solving for p, Initial residual = 0.0022833748, Final residual = 1.2285489e-05, No Iterations 3
GAMG:  Solving for p, Initial residual = 0.00031234992, Final residual = 2.8076754e-06, No Iterations 3
GAMG:  Solving for p, Initial residual = 7.2282896e-05, Final residual = 3.7629005e-07, No Iterations 4
GAMG:  Solving for p, Initial residual = 1.770326e-05, Final residual = 1.6873537e-07, No Iterations 3
GAMG:  Solving for p, Initial residual = 5.1240468e-06, Final residual = 3.3803277e-08, No Iterations 4
time step continuity errors : sum local = 8.5112156e-09, global = -6.2161465e-10, cumulative = -9.7716241e-09
smoothSolver:  Solving for omega, Initial residual = 0.021504683, Final residual = 0.0014413829, No Iterations 3
smoothSolver:  Solving for k, Initial residual = 0.011404345, Final residual = 0.00073581897, No Iterations 3
ExecutionTime = 54.853 s  ClockTime = 54 s

forces forces write:
    Sum of forces
        Total    : (0.080558197 3.6985212 -0.11061089)
        Pressure : (0.069750965 3.7024601 -0.11280376)
        Viscous  : (0.010807232 -0.0039389077 0.0021928608)
    Sum of moments
        Total    : (-2.3571259 0.097593967 0.49288875)
        Pressure : (-2.3596862 0.091947144 0.4894829)
        Viscous  : (0.0025603096 0.0056468229 0.00340585)


Time = 31

smoothSolver:  Solving for Ux, Initial residual = 0.0028369996, Final residual = 8.100453e-05, No Iterations 2
smoothSolver:  Solving for Uy, Initial residual = 0.0023001593, Final residual = 6.789217e-05, No Iterations 2
smoothSolver:  Solving for Uz, Initial residual = 0.0075707127, Final residual = 0.00024175631, No Iterations 2
GAMG:  Solving for p, Initial residual = 0.035193591, Final residual = 0.00017321634, No Iterations 3
GAMG:  Solving for p, Initial residual = 0.0021883249, Final residual = 1.0547341e-05, No Iterations 3
GAMG:  Solving for p, Initial residual = 0.00029422085, Final residual = 2.1763642e-06, No Iterations 3
GAMG:  Solving for p, Initial residual = 6.8678313e-05, Final residual = 4.9236609e-07, No Iterations 3
GAMG:  Solving for p, Initial residual = 1.694378e-05, Final residual = 1.4702502e-07, No Iterations 3
GAMG:  Solving for p, Initial residual = 4.8986928e-06, Final residual = 4.244889e-08, No Iterations 3
time step continuity errors : sum local = 1.063652e-08, global = -1.3783802e-09, cumulative = -1.1150004e-08
smoothSolver:  Solving for omega, Initial residual = 0.02052607, Final residual = 0.001375972, No Iterations 3
smoothSolver:  Solving for k, Initial residual = 0.01111533, Final residual = 0.00071666661, No Iterations 3
ExecutionTime = 56.172 s  ClockTime = 56 s

forces forces write:
    Sum of forces
        Total    : (0.082345508 3.697521 -0.10973283)
        Pressure : (0.071263101 3.7020092 -0.11193673)
        Viscous  : (0.011082407 -0.0044882637 0.0022038996)
    Sum of moments
        Total    : (-2.3564143 0.098138005 0.49241817)
        Pressure : (-2.3592211 0.092453943 0.48888823)
        Viscous  : (0.0028067731 0.0056840623 0.0035299358)


Time = 32

smoothSolver:  Solving for Ux, Initial residual = 0.0028096961, Final residual = 8.0933388e-05, No Iterations 2
smoothSolver:  Solving for Uy, Initial residual = 0.0021733485, Final residual = 6.2965147e-05, No Iterations 2
smoothSolver:  Solving for Uz, Initial residual = 0.007402349, Final residual = 0.00023452634, No Iterations 2
GAMG:  Solving for p, Initial residual = 0.0332695, Final residual = 0.00015997324, No Iterations 3
GAMG:  Solving for p, Initial residual = 0.0021233511, Final residual = 1.2393476e-05, No Iterations 3
GAMG:  Solving for p, Initial residual = 0.00029622527, Final residual = 2.6428363e-06, No Iterations 3
GAMG:  Solving for p, Initial residual = 7.0677513e-05, Final residual = 3.7410204e-07, No Iterations 4
GAMG:  Solving for p, Initial residual = 1.7421666e-05, Final residual = 9.4471352e-08, No Iterations 4
GAMG:  Solving for p, Initial residual = 5.0193223e-06, Final residual = 4.4747172e-08, No Iterations 3
time step continuity errors : sum local = 1.1169686e-08, global = -5.7587733e-10, cumulative = -1.1725882e-08
smoothSolver:  Solving for omega, Initial residual = 0.019611847, Final residual = 0.0013149197, No Iterations 3
smoothSolver:  Solving for k, Initial residual = 0.010845587, Final residual = 0.00069886589, No Iterations 3
ExecutionTime = 57.225 s  ClockTime = 57 s

forces forces write:
    Sum of forces
        Total    : (0.082634338 3.6955029 -0.10970614)
        Pressure : (0.071495379 3.7004319 -0.11183068)
        Viscous  : (0.011138959 -0.0049290333 0.0021245351)
    Sum of moments
        Total    : (-2.3550638 0.098174388 0.49086414)
        Pressure : (-2.3580702 0.092554772 0.48722037)
        Viscous  : (0.0030063547 0.0056196164 0.0036437708)


Time = 33

smoothSolver:  Solving for Ux, Initial residual = 0.0027643759, Final residual = 8.0578654e-05, No Iterations 2
smoothSolver:  Solving for Uy, Initial residual = 0.0021118344, Final residual = 5.9498406e-05, No Iterations 2
smoothSolver:  Solving for Uz, Initial residual = 0.0072221694, Final residual = 0.00022615131, No Iterations 2
GAMG:  Solving for p, Initial residual = 0.031410789, Final residual = 0.00014559631, No Iterations 3
GAMG:  Solving for p, Initial residual = 0.0020502175, Final residual = 1.2737032e-05, No Iterations 3
GAMG:  Solving for p, Initial residual = 0.00029415214, Final residual = 1.3114395e-06, No Iterations 4
GAMG:  Solving for p, Initial residual = 6.9214165e-05, Final residual = 5.43164e-07, No Iterations 3
GAMG:  Solving for p, Initial residual = 1.7749383e-05, Final residual = 1.2036804e-07, No Iterations 4
GAMG:  Solving for p, Initial residual = 5.1089668e-06, Final residual = 2.7994682e-08, No Iterations 4
time step continuity errors : sum local = 6.9624882e-09, global = 5.4195453e-10, cumulative = -1.1183927e-08
smoothSolver:  Solving for omega, Initial residual = 0.018757133, Final residual = 0.0012578262, No Iterations 3
smoothSolver:  Solving for k, Initial residual = 0.010592795, Final residual = 0.00068225152, No Iterations 3
ExecutionTime = 58.759 s  ClockTime = 58 s

forces forces write:
    Sum of forces
        Total    : (0.082040401 3.6934413 -0.11013561)
        Pressure : (0.070972903 3.69873 -0.11212324)
        Viscous  : (0.011067497 -0.0052887501 0.0019876213)
    Sum of moments
        Total    : (-2.3538536 0.097885919 0.48994661)
        Pressure : (-2.357022 0.092394408 0.48619584)
        Viscous  : (0.0031684251 0.0054915102 0.0037507741)


Time = 34

smoothSolver:  Solving for Ux, Initial residual = 0.0027066251, Final residual = 7.927715e-05, No Iterations 2
smoothSolver:  Solving for Uy, Initial residual = 0.0020730113, Final residual = 5.728627e-05, No Iterations 2
smoothSolver:  Solving for Uz, Initial residual = 0.0070487506, Final residual = 0.00021762133, No Iterations 2
GAMG:  Solving for p, Initial residual = 0.029704669, Final residual = 0.00013678466, No Iterations 3
GAMG:  Solving for p, Initial residual = 0.001914687, Final residual = 1.2783001e-05, No Iterations 3
GAMG:  Solving for p, Initial residual = 0.00027865739, Final residual = 1.0984492e-06, No Iterations 4
GAMG:  Solving for p, Initial residual = 6.5207026e-05, Final residual = 4.4171903e-07, No Iterations 3
GAMG:  Solving for p, Initial residual = 1.6787995e-05, Final residual = 9.3969951e-08, No Iterations 4
GAMG:  Solving for p, Initial residual = 4.8426114e-06, Final residual = 4.3649969e-08, No Iterations 3
time step continuity errors : sum local = 1.0810308e-08, global = 1.0461883e-09, cumulative = -1.0137739e-08
smoothSolver:  Solving for omega, Initial residual = 0.017957172, Final residual = 0.0012043799, No Iterations 3
smoothSolver:  Solving for k, Initial residual = 0.010356257, Final residual = 0.00066673749, No Iterations 3
ExecutionTime = 60.365 s  ClockTime = 60 s

forces forces write:
    Sum of forces
        Total    : (0.081414686 3.6919437 -0.11047352)
        Pressure : (0.070510664 3.6974837 -0.11227711)
        Viscous  : (0.010904022 -0.005540024 0.0018035927)
    Sum of moments
        Total    : (-2.3531582 0.097550407 0.49042341)
        Pressure : (-2.3564579 0.092222048 0.48656971)
        Viscous  : (0.0032997045 0.0053283586 0.0038537026)


Time = 35

smoothSolver:  Solving for Ux, Initial residual = 0.0026531011, Final residual = 7.7716515e-05, No Iterations 2
smoothSolver:  Solving for Uy, Initial residual = 0.0020117327, Final residual = 5.4132382e-05, No Iterations 2
smoothSolver:  Solving for Uz, Initial residual = 0.0068999984, Final residual = 0.00020932428, No Iterations 2
GAMG:  Solving for p, Initial residual = 0.028227646, Final residual = 0.00012510923, No Iterations 3
GAMG:  Solving for p, Initial residual = 0.0017350537, Final residual = 1.205259e-05, No Iterations 3
GAMG:  Solving for p, Initial residual = 0.00025053477, Final residual = 9.3517524e-07, No Iterations 4
GAMG:  Solving for p, Initial residual = 5.8064218e-05, Final residual = 3.7350087e-07, No Iterations 3
GAMG:  Solving for p, Initial residual = 1.4957607e-05, Final residual = 7.9952785e-08, No Iterations 4
GAMG:  Solving for p, Initial residual = 4.3354892e-06, Final residual = 3.8341413e-08, No Iterations 3
time step continuity errors : sum local = 9.4488024e-09, global = 8.8586783e-10, cumulative = -9.251871e-09
smoothSolver:  Solving for omega, Initial residual = 0.017207721, Final residual = 0.001154258, No Iterations 3
smoothSolver:  Solving for k, Initial residual = 0.010134509, Final residual = 0.00065220217, No Iterations 3
ExecutionTime = 61.404 s  ClockTime = 61 s

forces forces write:
    Sum of forces
        Total    : (0.081357476 3.6909128 -0.11032093)
        Pressure : (0.070668001 3.6966687 -0.11196559)
        Viscous  : (0.010689475 -0.0057558157 0.001644667)
    Sum of moments
        Total    : (-2.3528388 0.097397396 0.49197005)
        Pressure : (-2.3562723 0.092239261 0.48800641)
        Viscous  : (0.0034334916 0.0051581354 0.0039636425)


Time = 36

smoothSolver:  Solving for Ux, Initial residual = 0.0026046798, Final residual = 7.5967683e-05, No Iterations 2
smoothSolver:  Solving for Uy, Initial residual = 0.0019389558, Final residual = 5.1050506e-05, No Iterations 2
smoothSolver:  Solving for Uz, Initial residual = 0.0067770493, Final residual = 0.00020159439, No Iterations 2
GAMG:  Solving for p, Initial residual = 0.026895889, Final residual = 0.00010959969, No Iterations 3
GAMG:  Solving for p, Initial residual = 0.0015699483, Final residual = 1.0030699e-05, No Iterations 3
GAMG:  Solving for p, Initial residual = 0.00022130196, Final residual = 2.1877721e-06, No Iterations 3
GAMG:  Solving for p, Initial residual = 5.163858e-05, Final residual = 2.475026e-07, No Iterations 4
GAMG:  Solving for p, Initial residual = 1.2798794e-05, Final residual = 1.2323371e-07, No Iterations 3
GAMG:  Solving for p, Initial residual = 3.7186266e-06, Final residual = 2.3888602e-08, No Iterations 4
time step continuity errors : sum local = 5.8551527e-09, global = 4.9568817e-10, cumulative = -8.7561828e-09
smoothSolver:  Solving for omega, Initial residual = 0.016504202, Final residual = 0.0011071641, No Iterations 3
smoothSolver:  Solving for k, Initial residual = 0.0099271675, Final residual = 0.00063856871, No Iterations 3
ExecutionTime = 62.684 s  ClockTime = 62 s

forces forces write:
    Sum of forces
        Total    : (0.08191869 3.6900106 -0.10972162)
        Pressure : (0.071444037 3.6960104 -0.1112689)
        Viscous  : (0.010474654 -0.0059998312 0.0015472766)
    Sum of moments
        Total    : (-2.3525742 0.097483982 0.49372336)
        Pressure : (-2.3561556 0.092490109 0.48964014)
        Viscous  : (0.0035814145 0.0049938738 0.0040832233)


Time = 37

smoothSolver:  Solving for Ux, Initial residual = 0.0025646101, Final residual = 7.3869838e-05, No Iterations 2
smoothSolver:  Solving for Uy, Initial residual = 0.001865016, Final residual = 4.9117096e-05, No Iterations 2
smoothSolver:  Solving for Uz, Initial residual = 0.006667362, Final residual = 0.00019512125, No Iterations 2
GAMG:  Solving for p, Initial residual = 0.025656411, Final residual = 9.8794775e-05, No Iterations 3
GAMG:  Solving for p, Initial residual = 0.0014716962, Final residual = 7.8722761e-06, No Iterations 3
GAMG:  Solving for p, Initial residual = 0.00020413465, Final residual = 1.8819934e-06, No Iterations 3
GAMG:  Solving for p, Initial residual = 4.7458804e-05, Final residual = 2.606131e-07, No Iterations 4
GAMG:  Solving for p, Initial residual = 1.1538158e-05, Final residual = 1.132387e-07, No Iterations 3
GAMG:  Solving for p, Initial residual = 3.312016e-06, Final residual = 2.0816579e-08, No Iterations 4
time step continuity errors : sum local = 5.0754858e-09, global = 4.3410125e-10, cumulative = -8.3220816e-09
smoothSolver:  Solving for omega, Initial residual = 0.015842799, Final residual = 0.0010628819, No Iterations 3
smoothSolver:  Solving for k, Initial residual = 0.0097328317, Final residual = 0.00062574023, No Iterations 3
ExecutionTime = 64.246 s  ClockTime = 64 s

forces forces write:
    Sum of forces
        Total    : (0.082660982 3.6890253 -0.10906052)
        Pressure : (0.072400569 3.6953231 -0.11055294)
        Viscous  : (0.010260413 -0.0062977796 0.0014924222)
    Sum of moments
        Total    : (-2.3521276 0.097708666 0.49498345)
        Pressure : (-2.3558781 0.092874038 0.49076943)
        Viscous  : (0.0037505627 0.0048346276 0.0042140215)


Time = 38

smoothSolver:  Solving for Ux, Initial residual = 0.0025254708, Final residual = 7.1657562e-05, No Iterations 2
smoothSolver:  Solving for Uy, Initial residual = 0.0018033407, Final residual = 4.8069201e-05, No Iterations 2
smoothSolver:  Solving for Uz, Initial residual = 0.0065391041, Final residual = 0.00018891303, No Iterations 2
GAMG:  Solving for p, Initial residual = 0.02442941, Final residual = 9.0518742e-05, No Iterations 3
GAMG:  Solving for p, Initial residual = 0.0014070491, Final residual = 6.7320734e-06, No Iterations 3
GAMG:  Solving for p, Initial residual = 0.00019981216, Final residual = 1.6495677e-06, No Iterations 3
GAMG:  Solving for p, Initial residual = 4.690755e-05, Final residual = 2.8185303e-07, No Iterations 4
GAMG:  Solving for p, Initial residual = 1.1486196e-05, Final residual = 6.8332786e-08, No Iterations 4
GAMG:  Solving for p, Initial residual = 3.2687576e-06, Final residual = 3.1750653e-08, No Iterations 3
time step continuity errors : sum local = 7.7030205e-09, global = 1.9070109e-10, cumulative = -8.1313805e-09
smoothSolver:  Solving for omega, Initial residual = 0.015220358, Final residual = 0.0010211794, No Iterations 3
smoothSolver:  Solving for k, Initial residual = 0.0095509903, Final residual = 0.00061367138, No Iterations 3
ExecutionTime = 65.34 s  ClockTime = 65 s

forces forces write:
    Sum of forces
        Total    : (0.083069003 3.687988 -0.10865142)
        Pressure : (0.073099061 3.6945768 -0.11012881)
        Viscous  : (0.009969942 -0.0065887895 0.0014773884)
    Sum of moments
        Total    : (-2.3514732 0.097915204 0.49560003)
        Pressure : (-2.3553984 0.093243141 0.49124498)
        Viscous  : (0.0039251855 0.0046720631 0.00435505)


Time = 39

smoothSolver:  Solving for Ux, Initial residual = 0.0024796242, Final residual = 6.9318302e-05, No Iterations 2
smoothSolver:  Solving for Uy, Initial residual = 0.0017554763, Final residual = 4.714421e-05, No Iterations 2
smoothSolver:  Solving for Uz, Initial residual = 0.0063920732, Final residual = 0.00018221032, No Iterations 2
GAMG:  Solving for p, Initial residual = 0.023158246, Final residual = 8.413617e-05, No Iterations 3
GAMG:  Solving for p, Initial residual = 0.0013269705, Final residual = 5.9477205e-06, No Iterations 3
GAMG:  Solving for p, Initial residual = 0.00019171494, Final residual = 1.2587296e-06, No Iterations 3
GAMG:  Solving for p, Initial residual = 4.5415753e-05, Final residual = 3.9056656e-07, No Iterations 3
GAMG:  Solving for p, Initial residual = 1.1424173e-05, Final residual = 6.9407398e-08, No Iterations 4
GAMG:  Solving for p, Initial residual = 3.2558716e-06, Final residual = 3.1439954e-08, No Iterations 3
time step continuity errors : sum local = 7.5915264e-09, global = -5.0179149e-10, cumulative = -8.633172e-09
smoothSolver:  Solving for omega, Initial residual = 0.014634786, Final residual = 0.00098189076, No Iterations 3
smoothSolver:  Solving for k, Initial residual = 0.0093809298, Final residual = 0.00060230049, No Iterations 3
ExecutionTime = 66.65 s  ClockTime = 66 s

forces forces write:
    Sum of forces
        Total    : (0.083012338 3.686924 -0.1086406)
        Pressure : (0.073422445 3.693796 -0.1100375)
        Viscous  : (0.0095898932 -0.006871998 0.0013969032)
    Sum of moments
        Total    : (-2.350707 0.098019208 0.49589959)
        Pressure : (-2.3548098 0.093506803 0.49139185)
        Viscous  : (0.0041027197 0.0045124043 0.004507738)


Time = 40

smoothSolver:  Solving for Ux, Initial residual = 0.0024355155, Final residual = 6.7249299e-05, No Iterations 2
smoothSolver:  Solving for Uy, Initial residual = 0.0017084789, Final residual = 4.5842337e-05, No Iterations 2
smoothSolver:  Solving for Uz, Initial residual = 0.0062413703, Final residual = 0.00017623017, No Iterations 2
GAMG:  Solving for p, Initial residual = 0.021930699, Final residual = 8.1790579e-05, No Iterations 3
GAMG:  Solving for p, Initial residual = 0.0012391373, Final residual = 6.0250683e-06, No Iterations 3
GAMG:  Solving for p, Initial residual = 0.00018250802, Final residual = 1.1949103e-06, No Iterations 3
GAMG:  Solving for p, Initial residual = 4.354718e-05, Final residual = 2.7516231e-07, No Iterations 3
GAMG:  Solving for p, Initial residual = 1.1037453e-05, Final residual = 7.6409745e-08, No Iterations 3
GAMG:  Solving for p, Initial residual = 3.1778761e-06, Final residual = 2.3267317e-08, No Iterations 3
time step continuity errors : sum local = 5.5924784e-09, global = -9.8919728e-10, cumulative = -9.6223692e-09
smoothSolver:  Solving for omega, Initial residual = 0.014083426, Final residual = 0.00094480609, No Iterations 3
smoothSolver:  Solving for k, Initial residual = 0.0092217116, Final residual = 0.00059157275, No Iterations 3
ExecutionTime = 67.62 s  ClockTime = 67 s

forces forces write:
    Sum of forces
        Total    : (0.082728255 3.6858964 -0.10872322)
        Pressure : (0.073564306 3.6930399 -0.11007181)
        Viscous  : (0.0091639484 -0.0071434879 0.0013485884)
    Sum of moments
        Total    : (-2.3499855 0.098013844 0.49634225)
        Pressure : (-2.3542711 0.093661053 0.49167251)
        Viscous  : (0.0042856051 0.0043527908 0.0046697467)


Time = 41

smoothSolver:  Solving for Ux, Initial residual = 0.0023956555, Final residual = 6.544109e-05, No Iterations 2
smoothSolver:  Solving for Uy, Initial residual = 0.0016600861, Final residual = 4.4558352e-05, No Iterations 2
smoothSolver:  Solving for Uz, Initial residual = 0.0061047424, Final residual = 0.00017179839, No Iterations 2
GAMG:  Solving for p, Initial residual = 0.020852163, Final residual = 7.8969635e-05, No Iterations 3
GAMG:  Solving for p, Initial residual = 0.001156249, Final residual = 6.4177888e-06, No Iterations 3
GAMG:  Solving for p, Initial residual = 0.00017361432, Final residual = 1.2959285e-06, No Iterations 3
GAMG:  Solving for p, Initial residual = 4.1639153e-05, Final residual = 2.9602959e-07, No Iterations 3
GAMG:  Solving for p, Initial residual = 1.0573135e-05, Final residual = 9.0521636e-08, No Iterations 3
GAMG:  Solving for p, Initial residual = 3.0790308e-06, Final residual = 3.0617272e-08, No Iterations 3
time step continuity errors : sum local = 7.3261894e-09, global = -1.0283569e-09, cumulative = -1.0650726e-08
smoothSolver:  Solving for omega, Initial residual = 0.013563015, Final residual = 0.00090972233, No Iterations 3
smoothSolver:  Solving for k, Initial residual = 0.0090725795, Final residual = 0.00058144079, No Iterations 3
ExecutionTime = 68.696 s  ClockTime = 68 s

forces forces write:
    Sum of forces
        Total    : (0.082520063 3.6849623 -0.10876427)
        Pressure : (0.073781216 3.6923683 -0.11002282)
        Viscous  : (0.0087388475 -0.0074059886 0.0012585454)
    Sum of moments
        Total    : (-2.3494371 0.097964515 0.49717889)
        Pressure : (-2.3539073 0.093764119 0.49233774)
        Viscous  : (0.0044701629 0.0042003961 0.0048411513)


Time = 42

smoothSolver:  Solving for Ux, Initial residual = 0.002358846, Final residual = 6.3725307e-05, No Iterations 2
smoothSolver:  Solving for Uy, Initial residual = 0.0016131924, Final residual = 4.3749363e-05, No Iterations 2
smoothSolver:  Solving for Uz, Initial residual = 0.0059865729, Final residual = 0.0001688185, No Iterations 2
GAMG:  Solving for p, Initial residual = 0.019895786, Final residual = 7.2291031e-05, No Iterations 3
GAMG:  Solving for p, Initial residual = 0.0010894207, Final residual = 6.1362864e-06, No Iterations 3
GAMG:  Solving for p, Initial residual = 0.00016525674, Final residual = 1.2342642e-06, No Iterations 3
GAMG:  Solving for p, Initial residual = 3.9988293e-05, Final residual = 3.0078809e-07, No Iterations 3
GAMG:  Solving for p, Initial residual = 1.0209408e-05, Final residual = 8.9339916e-08, No Iterations 3
GAMG:  Solving for p, Initial residual = 2.9872324e-06, Final residual = 1.5121397e-08, No Iterations 4
time step continuity errors : sum local = 3.6021879e-09, global = -2.9942802e-10, cumulative = -1.0950154e-08
smoothSolver:  Solving for omega, Initial residual = 0.0130714, Final residual = 0.00087649385, No Iterations 3
smoothSolver:  Solving for k, Initial residual = 0.0089327937, Final residual = 0.00057185599, No Iterations 3
ExecutionTime = 69.745 s  ClockTime = 69 s

forces forces write:
    Sum of forces
        Total    : (0.082543503 3.6841118 -0.10866357)
        Pressure : (0.074200282 3.6917991 -0.10981688)
        Viscous  : (0.0083432212 -0.0076872613 0.0011533071)
    Sum of moments
        Total    : (-2.3490682 0.097932212 0.4983354)
        Pressure : (-2.3537313 0.093874411 0.493314)
        Viscous  : (0.0046631255 0.0040578016 0.0050213965)


Time = 43

smoothSolver:  Solving for Ux, Initial residual = 0.0023232288, Final residual = 6.2137934e-05, No Iterations 2
smoothSolver:  Solving for Uy, Initial residual = 0.0015636686, Final residual = 4.270303e-05, No Iterations 2
smoothSolver:  Solving for Uz, Initial residual = 0.0058770051, Final residual = 0.00016624042, No Iterations 2
GAMG:  Solving for p, Initial residual = 0.01895772, Final residual = 6.3530892e-05, No Iterations 3
GAMG:  Solving for p, Initial residual = 0.0010253415, Final residual = 5.4204947e-06, No Iterations 3
GAMG:  Solving for p, Initial residual = 0.00015618363, Final residual = 1.1439908e-06, No Iterations 3
GAMG:  Solving for p, Initial residual = 3.8166602e-05, Final residual = 2.6926581e-07, No Iterations 3
GAMG:  Solving for p, Initial residual = 9.7573639e-06, Final residual = 7.7637013e-08, No Iterations 3
GAMG:  Solving for p, Initial residual = 2.8714121e-06, Final residual = 2.5347731e-08, No Iterations 3
time step continuity errors : sum local = 6.0121968e-09, global = -9.1456867e-10, cumulative = -1.1864723e-08
smoothSolver:  Solving for omega, Initial residual = 0.012606466, Final residual = 0.00084498998, No Iterations 3
smoothSolver:  Solving for k, Initial residual = 0.0088018139, Final residual = 0.00056278865, No Iterations 3
ExecutionTime = 70.795 s  ClockTime = 70 s

forces forces write:
    Sum of forces
        Total    : (0.082768154 3.6833318 -0.10845739)
        Pressure : (0.074772741 3.6913152 -0.10951721)
        Viscous  : (0.0079954125 -0.0079834202 0.0010598219)
    Sum of moments
        Total    : (-2.3488012 0.097939238 0.499539)
        Pressure : (-2.353664 0.09401391 0.49432995)
        Viscous  : (0.004862764 0.0039253283 0.0052090524)


Time = 44

smoothSolver:  Solving for Ux, Initial residual = 0.00228572, Final residual = 6.0669816e-05, No Iterations 2
smoothSolver:  Solving for Uy, Initial residual = 0.0015148589, Final residual = 4.113765e-05, No Iterations 2
smoothSolver:  Solving for Uz, Initial residual = 0.0057529212, Final residual = 0.00016341409, No Iterations 2
GAMG:  Solving for p, Initial residual = 0.018095623, Final residual = 5.5696295e-05, No Iterations 3
GAMG:  Solving for p, Initial residual = 0.00094897835, Final residual = 4.7393248e-06, No Iterations 3
GAMG:  Solving for p, Initial residual = 0.00014635113, Final residual = 1.0596931e-06, No Iterations 3
GAMG:  Solving for p, Initial residual = 3.6072524e-05, Final residual = 2.8928581e-07, No Iterations 3
GAMG:  Solving for p, Initial residual = 9.3512405e-06, Final residual = 9.2229441e-08, No Iterations 3
GAMG:  Solving for p, Initial residual = 2.7921433e-06, Final residual = 1.1812196e-08, No Iterations 4
time step continuity errors : sum local = 2.7901288e-09, global = 2.9399418e-10, cumulative = -1.1570729e-08
smoothSolver:  Solving for omega, Initial residual = 0.012166391, Final residual = 0.00081508229, No Iterations 3
smoothSolver:  Solving for k, Initial residual = 0.0086789816, Final residual = 0.00055420878, No Iterations 3
ExecutionTime = 71.965 s  ClockTime = 72 s

forces forces write:
    Sum of forces
        Total    : (0.083044514 3.6825708 -0.10829421)
        Pressure : (0.075360349 3.6908686 -0.10925242)
        Viscous  : (0.0076841655 -0.0082977611 0.00095820427)
    Sum of moments
        Total    : (-2.3485276 0.097981355 0.50055339)
        Pressure : (-2.3535941 0.094178947 0.49514961)
        Viscous  : (0.0050664635 0.0038024082 0.005403778)


Time = 45

smoothSolver:  Solving for Ux, Initial residual = 0.002245908, Final residual = 5.9287021e-05, No Iterations 2
smoothSolver:  Solving for Uy, Initial residual = 0.001470141, Final residual = 3.9592485e-05, No Iterations 2
smoothSolver:  Solving for Uz, Initial residual = 0.0056092251, Final residual = 0.00015995532, No Iterations 2
GAMG:  Solving for p, Initial residual = 0.017350204, Final residual = 5.1170805e-05, No Iterations 3
GAMG:  Solving for p, Initial residual = 0.00088246341, Final residual = 4.5559117e-06, No Iterations 3
GAMG:  Solving for p, Initial residual = 0.00013877636, Final residual = 1.0279613e-06, No Iterations 3
GAMG:  Solving for p, Initial residual = 3.4211661e-05, Final residual = 3.0039879e-07, No Iterations 3
GAMG:  Solving for p, Initial residual = 9.0217413e-06, Final residual = 4.2811673e-08, No Iterations 4
GAMG:  Solving for p, Initial residual = 2.6535431e-06, Final residual = 1.9658401e-08, No Iterations 3
[...]
smoothSolver:  Solving for k, Initial residual = 0.0013237389, Final residual = 6.7075713e-05, No Iterations 3
ExecutionTime = 319.986 s  ClockTime = 320 s

forces forces write:
    Sum of forces
        Total    : (0.086396765 3.7441099 -0.062684917)
        Pressure : (0.08291981 3.723072 -0.068381279)
        Viscous  : (0.0034769549 0.021037875 0.0056963622)
    Sum of moments
        Total    : (-2.3755004 0.069206148 0.58142466)
        Pressure : (-2.3623448 0.072466364 0.53418519)
        Viscous  : (-0.01315558 -0.0032602166 0.047239466)


Time = 196

smoothSolver:  Solving for Ux, Initial residual = 0.0001089962, Final residual = 3.0388959e-06, No Iterations 2
smoothSolver:  Solving for Uy, Initial residual = 0.0001006235, Final residual = 3.4755026e-06, No Iterations 2
smoothSolver:  Solving for Uz, Initial residual = 0.00028401569, Final residual = 9.0955611e-06, No Iterations 2
GAMG:  Solving for p, Initial residual = 0.00046298014, Final residual = 3.5546884e-06, No Iterations 3
GAMG:  Solving for p, Initial residual = 4.3469828e-05, Final residual = 3.1988781e-07, No Iterations 4
GAMG:  Solving for p, Initial residual = 6.6806413e-06, Final residual = 6.3009151e-08, No Iterations 4
GAMG:  Solving for p, Initial residual = 1.5945874e-06, Final residual = 1.3117826e-08, No Iterations 4
GAMG:  Solving for p, Initial residual = 3.8383554e-07, Final residual = 6.2852429e-09, No Iterations 3
GAMG:  Solving for p, Initial residual = 1.1391563e-07, Final residual = 9.4514698e-09, No Iterations 1
time step continuity errors : sum local = 1.4668213e-09, global = -8.3021075e-11, cumulative = -1.5762214e-08
smoothSolver:  Solving for omega, Initial residual = 0.00020064031, Final residual = 1.0587858e-05, No Iterations 3
smoothSolver:  Solving for k, Initial residual = 0.001288244, Final residual = 6.5223546e-05, No Iterations 3
ExecutionTime = 323.501 s  ClockTime = 323 s

forces forces write:
    Sum of forces
        Total    : (0.086435097 3.7442497 -0.062620863)
        Pressure : (0.082942271 3.723177 -0.068346708)
        Viscous  : (0.003492826 0.02107265 0.0057258453)
    Sum of moments
        Total    : (-2.3755417 0.069181656 0.58154404)
        Pressure : (-2.3623642 0.072428657 0.53424929)
        Viscous  : (-0.013177458 -0.0032470006 0.047294752)


Time = 197

smoothSolver:  Solving for Ux, Initial residual = 0.00010713466, Final residual = 2.9899167e-06, No Iterations 2
smoothSolver:  Solving for Uy, Initial residual = 9.8946273e-05, Final residual = 3.4161837e-06, No Iterations 2
smoothSolver:  Solving for Uz, Initial residual = 0.00027917387, Final residual = 8.9356586e-06, No Iterations 2
GAMG:  Solving for p, Initial residual = 0.00045565088, Final residual = 3.4560694e-06, No Iterations 3
GAMG:  Solving for p, Initial residual = 4.2519165e-05, Final residual = 3.082781e-07, No Iterations 4
GAMG:  Solving for p, Initial residual = 6.5613669e-06, Final residual = 6.125467e-08, No Iterations 4
GAMG:  Solving for p, Initial residual = 1.5676314e-06, Final residual = 1.2809332e-08, No Iterations 4
GAMG:  Solving for p, Initial residual = 3.79882e-07, Final residual = 6.1653625e-09, No Iterations 3
GAMG:  Solving for p, Initial residual = 1.1279889e-07, Final residual = 9.3323079e-09, No Iterations 1
time step continuity errors : sum local = 1.4466378e-09, global = -8.1638686e-11, cumulative = -1.5843852e-08
smoothSolver:  Solving for omega, Initial residual = 0.00019804684, Final residual = 1.0462958e-05, No Iterations 3
smoothSolver:  Solving for k, Initial residual = 0.0012536228, Final residual = 6.3421067e-05, No Iterations 3
ExecutionTime = 326.979 s  ClockTime = 327 s

forces forces write:
    Sum of forces
        Total    : (0.086473016 3.7443861 -0.062559208)
        Pressure : (0.082963564 3.723278 -0.068313886)
        Viscous  : (0.003509452 0.021108114 0.0057546783)
    Sum of moments
        Total    : (-2.3755819 0.069159142 0.58166096)
        Pressure : (-2.3623835 0.072392543 0.53431027)
        Viscous  : (-0.013198356 -0.0032334019 0.047350694)


Time = 198

smoothSolver:  Solving for Ux, Initial residual = 0.00010531472, Final residual = 2.9419715e-06, No Iterations 2
smoothSolver:  Solving for Uy, Initial residual = 9.7282852e-05, Final residual = 3.3571209e-06, No Iterations 2
smoothSolver:  Solving for Uz, Initial residual = 0.00027440527, Final residual = 8.7772274e-06, No Iterations 2
GAMG:  Solving for p, Initial residual = 0.00044880437, Final residual = 3.3658826e-06, No Iterations 3
GAMG:  Solving for p, Initial residual = 4.1764666e-05, Final residual = 2.9688582e-07, No Iterations 4
GAMG:  Solving for p, Initial residual = 6.4732697e-06, Final residual = 5.9747071e-08, No Iterations 4
GAMG:  Solving for p, Initial residual = 1.5536552e-06, Final residual = 1.2543786e-08, No Iterations 4
GAMG:  Solving for p, Initial residual = 3.7737452e-07, Final residual = 6.0743693e-09, No Iterations 3
GAMG:  Solving for p, Initial residual = 1.1209982e-07, Final residual = 9.2410532e-09, No Iterations 1
time step continuity errors : sum local = 1.4308674e-09, global = -8.0650814e-11, cumulative = -1.5924503e-08
smoothSolver:  Solving for omega, Initial residual = 0.0001955396, Final residual = 1.0342032e-05, No Iterations 3
smoothSolver:  Solving for k, Initial residual = 0.0012198601, Final residual = 6.1667241e-05, No Iterations 3
ExecutionTime = 332.537 s  ClockTime = 332 s

forces forces write:
    Sum of forces
        Total    : (0.086510705 3.7445197 -0.062499161)
        Pressure : (0.082983815 3.7233755 -0.068282522)
        Viscous  : (0.0035268903 0.021144241 0.005783361)
    Sum of moments
        Total    : (-2.3756211 0.069137906 0.5817758)
        Pressure : (-2.3624028 0.072357758 0.53436853)
        Viscous  : (-0.013218286 -0.0032198519 0.047407276)


Time = 199

smoothSolver:  Solving for Ux, Initial residual = 0.00010353071, Final residual = 2.8950114e-06, No Iterations 2
smoothSolver:  Solving for Uy, Initial residual = 9.5630935e-05, Final residual = 3.298208e-06, No Iterations 2
smoothSolver:  Solving for Uz, Initial residual = 0.00026968242, Final residual = 8.6200292e-06, No Iterations 2
GAMG:  Solving for p, Initial residual = 0.00044157894, Final residual = 3.2823173e-06, No Iterations 3
GAMG:  Solving for p, Initial residual = 4.1046633e-05, Final residual = 2.8601452e-07, No Iterations 4
GAMG:  Solving for p, Initial residual = 6.3736974e-06, Final residual = 5.7457078e-08, No Iterations 4
GAMG:  Solving for p, Initial residual = 1.5348959e-06, Final residual = 1.2187814e-08, No Iterations 4
GAMG:  Solving for p, Initial residual = 3.7516202e-07, Final residual = 5.9080002e-09, No Iterations 3
GAMG:  Solving for p, Initial residual = 1.115926e-07, Final residual = 9.0738604e-09, No Iterations 1
time step continuity errors : sum local = 1.4034324e-09, global = -7.8483216e-11, cumulative = -1.6002986e-08
smoothSolver:  Solving for omega, Initial residual = 0.0001931156, Final residual = 1.022469e-05, No Iterations 3
smoothSolver:  Solving for k, Initial residual = 0.0011869388, Final residual = 5.9961011e-05, No Iterations 3
ExecutionTime = 335.691 s  ClockTime = 335 s

forces forces write:
    Sum of forces
        Total    : (0.086547893 3.7446504 -0.062441351)
        Pressure : (0.083003044 3.7234699 -0.068252453)
        Viscous  : (0.0035448486 0.021180558 0.0058111025)
    Sum of moments
        Total    : (-2.3756595 0.069118468 0.58188836)
        Pressure : (-2.3624222 0.07232409 0.53442431)
        Viscous  : (-0.013237237 -0.0032056213 0.04746405)


Time = 200

smoothSolver:  Solving for Ux, Initial residual = 0.00010178579, Final residual = 2.8490134e-06, No Iterations 2
smoothSolver:  Solving for Uy, Initial residual = 9.3992308e-05, Final residual = 3.239793e-06, No Iterations 2
smoothSolver:  Solving for Uz, Initial residual = 0.00026499186, Final residual = 8.4638168e-06, No Iterations 2
GAMG:  Solving for p, Initial residual = 0.00043405914, Final residual = 3.1997817e-06, No Iterations 3
GAMG:  Solving for p, Initial residual = 4.03432e-05, Final residual = 2.7492985e-07, No Iterations 4
GAMG:  Solving for p, Initial residual = 6.3123401e-06, Final residual = 5.5114901e-08, No Iterations 4
GAMG:  Solving for p, Initial residual = 1.5222577e-06, Final residual = 1.1753317e-08, No Iterations 4
GAMG:  Solving for p, Initial residual = 3.7323243e-07, Final residual = 9.9652662e-09, No Iterations 2
GAMG:  Solving for p, Initial residual = 1.1270291e-07, Final residual = 5.9858733e-09, No Iterations 2
time step continuity errors : sum local = 9.2483105e-10, global = -9.0641766e-11, cumulative = -1.6093628e-08
smoothSolver:  Solving for omega, Initial residual = 0.00019076473, Final residual = 1.0110693e-05, No Iterations 3
smoothSolver:  Solving for k, Initial residual = 0.001154846, Final residual = 5.830148e-05, No Iterations 3
ExecutionTime = 341.471 s  ClockTime = 341 s

forces forces write:
    Sum of forces
        Total    : (0.086584341 3.7447782 -0.062385968)
        Pressure : (0.08302128 3.7235615 -0.068223571)
        Viscous  : (0.0035630606 0.021216706 0.0058376034)
    Sum of moments
        Total    : (-2.375697 0.069100864 0.58199845)
        Pressure : (-2.3624417 0.072291376 0.53447779)
        Viscous  : (-0.013255292 -0.003190512 0.047520659)


Time = 201

smoothSolver:  Solving for Ux, Initial residual = 0.00010007775, Final residual = 2.8039052e-06, No Iterations 2
smoothSolver:  Solving for Uy, Initial residual = 9.2359678e-05, Final residual = 3.1817852e-06, No Iterations 2
smoothSolver:  Solving for Uz, Initial residual = 0.00026033572, Final residual = 8.3083968e-06, No Iterations 2
GAMG:  Solving for p, Initial residual = 0.00042651149, Final residual = 3.1145599e-06, No Iterations 3
GAMG:  Solving for p, Initial residual = 3.9534736e-05, Final residual = 2.6376057e-07, No Iterations 4
GAMG:  Solving for p, Initial residual = 6.2199565e-06, Final residual = 5.3008644e-08, No Iterations 4
GAMG:  Solving for p, Initial residual = 1.5004988e-06, Final residual = 1.1384298e-08, No Iterations 4
GAMG:  Solving for p, Initial residual = 3.6854987e-07, Final residual = 9.7256056e-09, No Iterations 2
GAMG:  Solving for p, Initial residual = 1.116759e-07, Final residual = 5.8330922e-09, No Iterations 2
time step continuity errors : sum local = 9.0029034e-10, global = -8.8599565e-11, cumulative = -1.6182228e-08
smoothSolver:  Solving for omega, Initial residual = 0.00018848289, Final residual = 9.9996967e-06, No Iterations 3
smoothSolver:  Solving for k, Initial residual = 0.0011235705, Final residual = 5.6687837e-05, No Iterations 3
ExecutionTime = 343.757 s  ClockTime = 343 s

forces forces write:
    Sum of forces
        Total    : (0.086620201 3.7449031 -0.062332844)
        Pressure : (0.083038537 3.7236503 -0.068196021)
        Viscous  : (0.0035816639 0.021252766 0.0058631767)
    Sum of moments
        Total    : (-2.3757337 0.069084927 0.58210621)
        Pressure : (-2.3624613 0.072259733 0.53452896)
        Viscous  : (-0.013272437 -0.0031748056 0.047577249)


Time = 202

smoothSolver:  Solving for Ux, Initial residual = 9.8403373e-05, Final residual = 2.7596267e-06, No Iterations 2
smoothSolver:  Solving for Uy, Initial residual = 9.0746306e-05, Final residual = 3.1239246e-06, No Iterations 2
smoothSolver:  Solving for Uz, Initial residual = 0.00025572611, Final residual = 8.1544557e-06, No Iterations 2
GAMG:  Solving for p, Initial residual = 0.00041918973, Final residual = 3.0309123e-06, No Iterations 3
GAMG:  Solving for p, Initial residual = 3.8842015e-05, Final residual = 2.5305618e-07, No Iterations 4
GAMG:  Solving for p, Initial residual = 6.1172377e-06, Final residual = 5.1338372e-08, No Iterations 4
GAMG:  Solving for p, Initial residual = 1.4792009e-06, Final residual = 1.1114371e-08, No Iterations 4
GAMG:  Solving for p, Initial residual = 3.6456183e-07, Final residual = 9.5510091e-09, No Iterations 2
GAMG:  Solving for p, Initial residual = 1.1018934e-07, Final residual = 5.7344137e-09, No Iterations 2
time step continuity errors : sum local = 8.8416811e-10, global = -8.7031559e-11, cumulative = -1.6269259e-08
smoothSolver:  Solving for omega, Initial residual = 0.00018626718, Final residual = 9.8916996e-06, No Iterations 3
smoothSolver:  Solving for k, Initial residual = 0.0010930976, Final residual = 5.511908e-05, No Iterations 3
ExecutionTime = 345.223 s  ClockTime = 345 s

forces forces write:
    Sum of forces
        Total    : (0.086655661 3.7450253 -0.062281752)
        Pressure : (0.083054838 3.7237363 -0.068169891)
        Viscous  : (0.0036008231 0.021288987 0.0058881393)
    Sum of moments
        Total    : (-2.3757694 0.069070491 0.58221188)
        Pressure : (-2.3624808 0.07222923 0.53457783)
        Viscous  : (-0.013288653 -0.0031587392 0.047634048)


Time = 203

smoothSolver:  Solving for Ux, Initial residual = 9.6764746e-05, Final residual = 2.71613e-06, No Iterations 2
smoothSolver:  Solving for Uy, Initial residual = 8.9144742e-05, Final residual = 3.0665807e-06, No Iterations 2
smoothSolver:  Solving for Uz, Initial residual = 0.0002511554, Final residual = 8.0019705e-06, No Iterations 2
GAMG:  Solving for p, Initial residual = 0.00041220782, Final residual = 2.9471565e-06, No Iterations 3
GAMG:  Solving for p, Initial residual = 3.8205273e-05, Final residual = 2.4306223e-07, No Iterations 4
GAMG:  Solving for p, Initial residual = 6.0436517e-06, Final residual = 4.8995213e-08, No Iterations 4
GAMG:  Solving for p, Initial residual = 1.4541326e-06, Final residual = 1.0755246e-08, No Iterations 4
GAMG:  Solving for p, Initial residual = 3.6010959e-07, Final residual = 9.2681911e-09, No Iterations 2
GAMG:  Solving for p, Initial residual = 1.0892943e-07, Final residual = 5.5864492e-09, No Iterations 2
time step continuity errors : sum local = 8.6051128e-10, global = -8.4566507e-11, cumulative = -1.6353826e-08
smoothSolver:  Solving for omega, Initial residual = 0.00018411338, Final residual = 9.7865575e-06, No Iterations 3
smoothSolver:  Solving for k, Initial residual = 0.0010634139, Final residual = 5.3594235e-05, No Iterations 3
ExecutionTime = 347.12 s  ClockTime = 347 s

forces forces write:
    Sum of forces
        Total    : (0.086690643 3.7451444 -0.06223295)
        Pressure : (0.083070151 3.7238192 -0.068145215)
        Viscous  : (0.0036204926 0.021325185 0.0059122647)
    Sum of moments
        Total    : (-2.3758042 0.069057723 0.58231515)
        Pressure : (-2.3625003 0.072199908 0.53462424)
        Viscous  : (-0.01330395 -0.0031421848 0.047690912)


Time = 204

smoothSolver:  Solving for Ux, Initial residual = 9.5160916e-05, Final residual = 2.6735108e-06, No Iterations 2
smoothSolver:  Solving for Uy, Initial residual = 8.7560212e-05, Final residual = 3.0096757e-06, No Iterations 2
smoothSolver:  Solving for Uz, Initial residual = 0.00024659839, Final residual = 7.8505612e-06, No Iterations 2
GAMG:  Solving for p, Initial residual = 0.00040551174, Final residual = 2.8595524e-06, No Iterations 3
GAMG:  Solving for p, Initial residual = 3.754214e-05, Final residual = 2.3330217e-07, No Iterations 4
GAMG:  Solving for p, Initial residual = 5.9560699e-06, Final residual = 4.7166376e-08, No Iterations 4
GAMG:  Solving for p, Initial residual = 1.4362587e-06, Final residual = 1.0416394e-08, No Iterations 4
GAMG:  Solving for p, Initial residual = 3.566452e-07, Final residual = 9.0209745e-09, No Iterations 2
GAMG:  Solving for p, Initial residual = 1.0772094e-07, Final residual = 9.973687e-09, No Iterations 1
time step continuity errors : sum local = 1.5348435e-09, global = -9.4767496e-11, cumulative = -1.6448593e-08
smoothSolver:  Solving for omega, Initial residual = 0.00018201471, Final residual = 9.6838505e-06, No Iterations 3
smoothSolver:  Solving for k, Initial residual = 0.0010345057, Final residual = 5.2112477e-05, No Iterations 3
ExecutionTime = 349.115 s  ClockTime = 349 s

forces forces write:
    Sum of forces
        Total    : (0.086725203 3.7452605 -0.062186059)
        Pressure : (0.083084496 3.7238989 -0.068121974)
        Viscous  : (0.0036407075 0.021361521 0.0059359152)
    Sum of moments
        Total    : (-2.3758381 0.069046412 0.58241625)
        Pressure : (-2.3625197 0.072171787 0.53466826)
        Viscous  : (-0.013318398 -0.003125375 0.047747996)


Time = 205

smoothSolver:  Solving for Ux, Initial residual = 9.3594444e-05, Final residual = 2.6317974e-06, No Iterations 2
smoothSolver:  Solving for Uy, Initial residual = 8.5995419e-05, Final residual = 2.9531673e-06, No Iterations 2
smoothSolver:  Solving for Uz, Initial residual = 0.00024210993, Final residual = 7.7005543e-06, No Iterations 2
GAMG:  Solving for p, Initial residual = 0.00039895838, Final residual = 2.7728423e-06, No Iterations 3
GAMG:  Solving for p, Initial residual = 3.6740762e-05, Final residual = 2.236759e-07, No Iterations 4
GAMG:  Solving for p, Initial residual = 5.8425368e-06, Final residual = 4.5503479e-08, No Iterations 4
GAMG:  Solving for p, Initial residual = 1.4144436e-06, Final residual = 1.0100627e-08, No Iterations 4
GAMG:  Solving for p, Initial residual = 3.5214048e-07, Final residual = 8.7709368e-09, No Iterations 2
GAMG:  Solving for p, Initial residual = 1.0644197e-07, Final residual = 9.7118268e-09, No Iterations 1
time step continuity errors : sum local = 1.4931705e-09, global = -9.1923168e-11, cumulative = -1.6540516e-08
smoothSolver:  Solving for omega, Initial residual = 0.00017996606, Final residual = 9.5832748e-06, No Iterations 3
smoothSolver:  Solving for k, Initial residual = 0.0010063613, Final residual = 5.0672976e-05, No Iterations 3
ExecutionTime = 350.934 s  ClockTime = 351 s

forces forces write:
    Sum of forces
        Total    : (0.086759453 3.745374 -0.062140791)
        Pressure : (0.08309795 3.7239759 -0.068100127)
        Viscous  : (0.0036615025 0.021398121 0.0059593366)
    Sum of moments
        Total    : (-2.3758712 0.069036452 0.58251542)
        Pressure : (-2.3625392 0.072144898 0.53471008)
        Viscous  : (-0.013331984 -0.0031084454 0.047805334)


Time = 206

smoothSolver:  Solving for Ux, Initial residual = 9.2063276e-05, Final residual = 2.5909877e-06, No Iterations 2
smoothSolver:  Solving for Uy, Initial residual = 8.4442935e-05, Final residual = 2.8970805e-06, No Iterations 2
smoothSolver:  Solving for Uz, Initial residual = 0.00023768078, Final residual = 7.5521671e-06, No Iterations 2
GAMG:  Solving for p, Initial residual = 0.00039253948, Final residual = 2.6914882e-06, No Iterations 3
GAMG:  Solving for p, Initial residual = 3.601592e-05, Final residual = 2.1539392e-07, No Iterations 4
GAMG:  Solving for p, Initial residual = 5.7340446e-06, Final residual = 4.4096826e-08, No Iterations 4
GAMG:  Solving for p, Initial residual = 1.3897874e-06, Final residual = 9.8389947e-09, No Iterations 4
GAMG:  Solving for p, Initial residual = 3.4579984e-07, Final residual = 8.5696992e-09, No Iterations 2
GAMG:  Solving for p, Initial residual = 1.0463683e-07, Final residual = 9.495184e-09, No Iterations 1
time step continuity errors : sum local = 1.45856e-09, global = -8.9641764e-11, cumulative = -1.6630158e-08
smoothSolver:  Solving for omega, Initial residual = 0.00017796732, Final residual = 9.4847342e-06, No Iterations 3
smoothSolver:  Solving for k, Initial residual = 0.00097896721, Final residual = 4.9274791e-05, No Iterations 3
ExecutionTime = 352.796 s  ClockTime = 352 s


SIMPLE solution converged in 206 iterations

forces forces write:
    Sum of forces
        Total    : (0.086793377 3.7454853 -0.062097406)
        Pressure : (0.083110601 3.7240504 -0.068079683)
        Viscous  : (0.0036827757 0.021434858 0.0059822771)
    Sum of moments
        Total    : (-2.3759033 0.069027901 0.58261283)
        Pressure : (-2.3625586 0.072119249 0.53474998)
        Viscous  : (-0.013344735 -0.0030913478 0.047862854)


End

Finalising parallel run
